
*** ChampSim Multicore Out-of-Order Simulator ***

Warmup Instructions: 1000000
Prefetch Warmup Instructions: 450000000
Simulation Instructions: 500000000
Stat Printing Period: 1000000
Number of CPUs: 1
LLC sets: 2048
LLC ways: 16
Off-chip DRAM Size: 4096 MB Channels: 1 Width: 64-bit Data Rate: 3200 MT/s

CPU 0 runs /scratch/cluster/cmolder/ML-DPC/ChampSimTraces/spec17/620.omnetpp-s0.trace.xz
Read seed: 216
Heartbeat CPU 0 instructions: 1000001 cycles: 553840 heartbeat IPC: 1.80558 cumulative IPC: 1.80558 (Simulation time: 0 hr 0 min 4 sec) 

Warmup complete CPU 0 instructions: 1000001 cycles: 553840 (Simulation time: 0 hr 0 min 4 sec) 

Heartbeat CPU 0 instructions: 2000000 cycles: 3435132 heartbeat IPC: 0.347066 cumulative IPC: 0.347066 (Simulation time: 0 hr 0 min 8 sec) 
Heartbeat CPU 0 instructions: 3000002 cycles: 6186274 heartbeat IPC: 0.363486 cumulative IPC: 0.355086 (Simulation time: 0 hr 0 min 12 sec) 
Heartbeat CPU 0 instructions: 4000003 cycles: 9268637 heartbeat IPC: 0.324427 cumulative IPC: 0.344242 (Simulation time: 0 hr 0 min 16 sec) 
Heartbeat CPU 0 instructions: 5000002 cycles: 12269206 heartbeat IPC: 0.33327 cumulative IPC: 0.341432 (Simulation time: 0 hr 0 min 20 sec) 
Heartbeat CPU 0 instructions: 6000001 cycles: 15166527 heartbeat IPC: 0.345146 cumulative IPC: 0.342168 (Simulation time: 0 hr 0 min 24 sec) 
Heartbeat CPU 0 instructions: 7000000 cycles: 18056885 heartbeat IPC: 0.345978 cumulative IPC: 0.342797 (Simulation time: 0 hr 0 min 28 sec) 
Heartbeat CPU 0 instructions: 8000002 cycles: 20754882 heartbeat IPC: 0.370646 cumulative IPC: 0.346517 (Simulation time: 0 hr 0 min 34 sec) 
Heartbeat CPU 0 instructions: 9000000 cycles: 23677128 heartbeat IPC: 0.342202 cumulative IPC: 0.345972 (Simulation time: 0 hr 0 min 40 sec) 
Heartbeat CPU 0 instructions: 10000001 cycles: 26646238 heartbeat IPC: 0.336802 cumulative IPC: 0.344928 (Simulation time: 0 hr 0 min 47 sec) 
Heartbeat CPU 0 instructions: 11000000 cycles: 29605396 heartbeat IPC: 0.337934 cumulative IPC: 0.344216 (Simulation time: 0 hr 0 min 52 sec) 
Heartbeat CPU 0 instructions: 12000002 cycles: 32645870 heartbeat IPC: 0.328897 cumulative IPC: 0.342764 (Simulation time: 0 hr 0 min 58 sec) 
Heartbeat CPU 0 instructions: 13000001 cycles: 35459703 heartbeat IPC: 0.355387 cumulative IPC: 0.343782 (Simulation time: 0 hr 1 min 5 sec) 
Heartbeat CPU 0 instructions: 14000003 cycles: 38507881 heartbeat IPC: 0.328065 cumulative IPC: 0.34252 (Simulation time: 0 hr 1 min 12 sec) 
Heartbeat CPU 0 instructions: 15000001 cycles: 41452722 heartbeat IPC: 0.339576 cumulative IPC: 0.342308 (Simulation time: 0 hr 1 min 19 sec) 
Heartbeat CPU 0 instructions: 16000002 cycles: 44394114 heartbeat IPC: 0.339975 cumulative IPC: 0.342151 (Simulation time: 0 hr 1 min 26 sec) 
Heartbeat CPU 0 instructions: 17000002 cycles: 47234036 heartbeat IPC: 0.352122 cumulative IPC: 0.342758 (Simulation time: 0 hr 1 min 33 sec) 
Heartbeat CPU 0 instructions: 18000003 cycles: 50184648 heartbeat IPC: 0.338913 cumulative IPC: 0.342529 (Simulation time: 0 hr 1 min 40 sec) 
Heartbeat CPU 0 instructions: 19000000 cycles: 53407128 heartbeat IPC: 0.310319 cumulative IPC: 0.340565 (Simulation time: 0 hr 1 min 47 sec) 
Heartbeat CPU 0 instructions: 20000003 cycles: 56455890 heartbeat IPC: 0.328003 cumulative IPC: 0.33988 (Simulation time: 0 hr 1 min 54 sec) 
Heartbeat CPU 0 instructions: 21000000 cycles: 59555498 heartbeat IPC: 0.32262 cumulative IPC: 0.338974 (Simulation time: 0 hr 2 min 1 sec) 
Heartbeat CPU 0 instructions: 22000000 cycles: 62404256 heartbeat IPC: 0.35103 cumulative IPC: 0.339529 (Simulation time: 0 hr 2 min 8 sec) 
Heartbeat CPU 0 instructions: 23000003 cycles: 65346589 heartbeat IPC: 0.339867 cumulative IPC: 0.339544 (Simulation time: 0 hr 2 min 15 sec) 
Heartbeat CPU 0 instructions: 24000000 cycles: 68252763 heartbeat IPC: 0.344094 cumulative IPC: 0.33974 (Simulation time: 0 hr 2 min 20 sec) 
Heartbeat CPU 0 instructions: 25000000 cycles: 71289214 heartbeat IPC: 0.329332 cumulative IPC: 0.339293 (Simulation time: 0 hr 2 min 24 sec) 
Heartbeat CPU 0 instructions: 26000003 cycles: 74226106 heartbeat IPC: 0.340497 cumulative IPC: 0.339341 (Simulation time: 0 hr 2 min 29 sec) 
Heartbeat CPU 0 instructions: 27000001 cycles: 77260431 heartbeat IPC: 0.329562 cumulative IPC: 0.338954 (Simulation time: 0 hr 2 min 33 sec) 
Heartbeat CPU 0 instructions: 28000003 cycles: 80019338 heartbeat IPC: 0.362463 cumulative IPC: 0.33977 (Simulation time: 0 hr 2 min 37 sec) 
Heartbeat CPU 0 instructions: 29000000 cycles: 83116105 heartbeat IPC: 0.322916 cumulative IPC: 0.339138 (Simulation time: 0 hr 2 min 42 sec) 
Heartbeat CPU 0 instructions: 30000000 cycles: 85942779 heartbeat IPC: 0.353773 cumulative IPC: 0.339622 (Simulation time: 0 hr 2 min 46 sec) 
Heartbeat CPU 0 instructions: 31000000 cycles: 88822912 heartbeat IPC: 0.347206 cumulative IPC: 0.33987 (Simulation time: 0 hr 2 min 50 sec) 
Heartbeat CPU 0 instructions: 32000000 cycles: 92199748 heartbeat IPC: 0.296135 cumulative IPC: 0.338258 (Simulation time: 0 hr 2 min 55 sec) 
Heartbeat CPU 0 instructions: 33000000 cycles: 95113705 heartbeat IPC: 0.343176 cumulative IPC: 0.33841 (Simulation time: 0 hr 2 min 59 sec) 
Heartbeat CPU 0 instructions: 34000000 cycles: 98256555 heartbeat IPC: 0.318183 cumulative IPC: 0.337759 (Simulation time: 0 hr 3 min 3 sec) 
Heartbeat CPU 0 instructions: 35000003 cycles: 101226190 heartbeat IPC: 0.336743 cumulative IPC: 0.337729 (Simulation time: 0 hr 3 min 7 sec) 
Heartbeat CPU 0 instructions: 36000000 cycles: 104067767 heartbeat IPC: 0.351916 cumulative IPC: 0.338119 (Simulation time: 0 hr 3 min 12 sec) 
Heartbeat CPU 0 instructions: 37000003 cycles: 106999242 heartbeat IPC: 0.341126 cumulative IPC: 0.338202 (Simulation time: 0 hr 3 min 16 sec) 
Heartbeat CPU 0 instructions: 38000000 cycles: 109872516 heartbeat IPC: 0.348034 cumulative IPC: 0.33846 (Simulation time: 0 hr 3 min 20 sec) 
Heartbeat CPU 0 instructions: 39000000 cycles: 112858683 heartbeat IPC: 0.334877 cumulative IPC: 0.338365 (Simulation time: 0 hr 3 min 24 sec) 
Heartbeat CPU 0 instructions: 40000002 cycles: 116037261 heartbeat IPC: 0.314607 cumulative IPC: 0.337711 (Simulation time: 0 hr 3 min 29 sec) 
Heartbeat CPU 0 instructions: 41000003 cycles: 118863596 heartbeat IPC: 0.353815 cumulative IPC: 0.338096 (Simulation time: 0 hr 3 min 33 sec) 
Heartbeat CPU 0 instructions: 42000000 cycles: 122063804 heartbeat IPC: 0.312479 cumulative IPC: 0.337421 (Simulation time: 0 hr 3 min 37 sec) 
Heartbeat CPU 0 instructions: 43000000 cycles: 124924519 heartbeat IPC: 0.349563 cumulative IPC: 0.3377 (Simulation time: 0 hr 3 min 41 sec) 
Heartbeat CPU 0 instructions: 44000000 cycles: 127861622 heartbeat IPC: 0.340472 cumulative IPC: 0.337764 (Simulation time: 0 hr 3 min 45 sec) 
Heartbeat CPU 0 instructions: 45000003 cycles: 130964145 heartbeat IPC: 0.322319 cumulative IPC: 0.337397 (Simulation time: 0 hr 3 min 50 sec) 
Heartbeat CPU 0 instructions: 46000002 cycles: 133884747 heartbeat IPC: 0.342395 cumulative IPC: 0.337506 (Simulation time: 0 hr 3 min 54 sec) 
Heartbeat CPU 0 instructions: 47000000 cycles: 136716071 heartbeat IPC: 0.353191 cumulative IPC: 0.337832 (Simulation time: 0 hr 3 min 58 sec) 
Heartbeat CPU 0 instructions: 48000000 cycles: 139542060 heartbeat IPC: 0.353858 cumulative IPC: 0.338158 (Simulation time: 0 hr 4 min 2 sec) 
Heartbeat CPU 0 instructions: 49000002 cycles: 142632648 heartbeat IPC: 0.323564 cumulative IPC: 0.337841 (Simulation time: 0 hr 4 min 7 sec) 
Heartbeat CPU 0 instructions: 50000003 cycles: 146026854 heartbeat IPC: 0.29462 cumulative IPC: 0.336832 (Simulation time: 0 hr 4 min 11 sec) 
Heartbeat CPU 0 instructions: 51000001 cycles: 148810317 heartbeat IPC: 0.359264 cumulative IPC: 0.337253 (Simulation time: 0 hr 4 min 16 sec) 
Heartbeat CPU 0 instructions: 52000000 cycles: 151770339 heartbeat IPC: 0.337835 cumulative IPC: 0.337265 (Simulation time: 0 hr 4 min 20 sec) 
Heartbeat CPU 0 instructions: 53000001 cycles: 154757983 heartbeat IPC: 0.334712 cumulative IPC: 0.337215 (Simulation time: 0 hr 4 min 24 sec) 
Heartbeat CPU 0 instructions: 54000003 cycles: 157255305 heartbeat IPC: 0.40043 cumulative IPC: 0.338223 (Simulation time: 0 hr 4 min 28 sec) 
Heartbeat CPU 0 instructions: 55000000 cycles: 160250658 heartbeat IPC: 0.333849 cumulative IPC: 0.338141 (Simulation time: 0 hr 4 min 32 sec) 
Heartbeat CPU 0 instructions: 56000000 cycles: 163353712 heartbeat IPC: 0.322263 cumulative IPC: 0.337838 (Simulation time: 0 hr 4 min 36 sec) 
Heartbeat CPU 0 instructions: 57000000 cycles: 166358271 heartbeat IPC: 0.332828 cumulative IPC: 0.337747 (Simulation time: 0 hr 4 min 40 sec) 
Heartbeat CPU 0 instructions: 58000003 cycles: 169275527 heartbeat IPC: 0.342789 cumulative IPC: 0.337834 (Simulation time: 0 hr 4 min 45 sec) 
Heartbeat CPU 0 instructions: 59000003 cycles: 172325996 heartbeat IPC: 0.327818 cumulative IPC: 0.337657 (Simulation time: 0 hr 4 min 49 sec) 
Heartbeat CPU 0 instructions: 60000001 cycles: 175291107 heartbeat IPC: 0.337255 cumulative IPC: 0.33765 (Simulation time: 0 hr 4 min 53 sec) 
Heartbeat CPU 0 instructions: 61000001 cycles: 178371810 heartbeat IPC: 0.324601 cumulative IPC: 0.337424 (Simulation time: 0 hr 4 min 57 sec) 
Heartbeat CPU 0 instructions: 62000001 cycles: 181369257 heartbeat IPC: 0.333617 cumulative IPC: 0.337361 (Simulation time: 0 hr 5 min 2 sec) 
Heartbeat CPU 0 instructions: 63000000 cycles: 184353408 heartbeat IPC: 0.335103 cumulative IPC: 0.337324 (Simulation time: 0 hr 5 min 6 sec) 
Heartbeat CPU 0 instructions: 64000000 cycles: 187207211 heartbeat IPC: 0.35041 cumulative IPC: 0.337524 (Simulation time: 0 hr 5 min 10 sec) 
Heartbeat CPU 0 instructions: 65000000 cycles: 190248921 heartbeat IPC: 0.328762 cumulative IPC: 0.337384 (Simulation time: 0 hr 5 min 14 sec) 
Heartbeat CPU 0 instructions: 66000000 cycles: 193184869 heartbeat IPC: 0.340605 cumulative IPC: 0.337433 (Simulation time: 0 hr 5 min 19 sec) 
Heartbeat CPU 0 instructions: 67000001 cycles: 196180179 heartbeat IPC: 0.333856 cumulative IPC: 0.337378 (Simulation time: 0 hr 5 min 23 sec) 
Heartbeat CPU 0 instructions: 68000001 cycles: 199183540 heartbeat IPC: 0.33296 cumulative IPC: 0.337311 (Simulation time: 0 hr 5 min 27 sec) 
Heartbeat CPU 0 instructions: 69000002 cycles: 202142822 heartbeat IPC: 0.33792 cumulative IPC: 0.33732 (Simulation time: 0 hr 5 min 31 sec) 
Heartbeat CPU 0 instructions: 70000000 cycles: 204964116 heartbeat IPC: 0.354447 cumulative IPC: 0.337556 (Simulation time: 0 hr 5 min 36 sec) 
Heartbeat CPU 0 instructions: 71000002 cycles: 207893380 heartbeat IPC: 0.341383 cumulative IPC: 0.33761 (Simulation time: 0 hr 5 min 40 sec) 
Heartbeat CPU 0 instructions: 72000002 cycles: 210853864 heartbeat IPC: 0.337783 cumulative IPC: 0.337613 (Simulation time: 0 hr 5 min 44 sec) 
Heartbeat CPU 0 instructions: 73000001 cycles: 213753084 heartbeat IPC: 0.34492 cumulative IPC: 0.337712 (Simulation time: 0 hr 5 min 48 sec) 
Heartbeat CPU 0 instructions: 74000001 cycles: 216722173 heartbeat IPC: 0.336804 cumulative IPC: 0.3377 (Simulation time: 0 hr 5 min 53 sec) 
Heartbeat CPU 0 instructions: 75000003 cycles: 219660836 heartbeat IPC: 0.340292 cumulative IPC: 0.337735 (Simulation time: 0 hr 5 min 57 sec) 
Heartbeat CPU 0 instructions: 76000003 cycles: 222861559 heartbeat IPC: 0.312429 cumulative IPC: 0.33737 (Simulation time: 0 hr 6 min 4 sec) 
Heartbeat CPU 0 instructions: 77000000 cycles: 225718389 heartbeat IPC: 0.350037 cumulative IPC: 0.337531 (Simulation time: 0 hr 6 min 10 sec) 
Heartbeat CPU 0 instructions: 78000000 cycles: 228647983 heartbeat IPC: 0.341344 cumulative IPC: 0.33758 (Simulation time: 0 hr 6 min 16 sec) 
Heartbeat CPU 0 instructions: 79000001 cycles: 231804728 heartbeat IPC: 0.316782 cumulative IPC: 0.337296 (Simulation time: 0 hr 6 min 21 sec) 
Heartbeat CPU 0 instructions: 80000000 cycles: 234653627 heartbeat IPC: 0.351012 cumulative IPC: 0.337463 (Simulation time: 0 hr 6 min 25 sec) 
Heartbeat CPU 0 instructions: 81000000 cycles: 237719408 heartbeat IPC: 0.326181 cumulative IPC: 0.337317 (Simulation time: 0 hr 6 min 29 sec) 
Heartbeat CPU 0 instructions: 82000003 cycles: 240631622 heartbeat IPC: 0.343382 cumulative IPC: 0.337391 (Simulation time: 0 hr 6 min 33 sec) 
Heartbeat CPU 0 instructions: 83000000 cycles: 243653486 heartbeat IPC: 0.330921 cumulative IPC: 0.33731 (Simulation time: 0 hr 6 min 37 sec) 
Heartbeat CPU 0 instructions: 84000001 cycles: 246491813 heartbeat IPC: 0.352321 cumulative IPC: 0.337483 (Simulation time: 0 hr 6 min 41 sec) 
Heartbeat CPU 0 instructions: 85000003 cycles: 249543999 heartbeat IPC: 0.327635 cumulative IPC: 0.337363 (Simulation time: 0 hr 6 min 45 sec) 
Heartbeat CPU 0 instructions: 86000002 cycles: 252371501 heartbeat IPC: 0.353669 cumulative IPC: 0.337546 (Simulation time: 0 hr 6 min 49 sec) 
Heartbeat CPU 0 instructions: 87000000 cycles: 255472392 heartbeat IPC: 0.322487 cumulative IPC: 0.337363 (Simulation time: 0 hr 6 min 53 sec) 
Heartbeat CPU 0 instructions: 88000000 cycles: 258462362 heartbeat IPC: 0.334452 cumulative IPC: 0.337329 (Simulation time: 0 hr 6 min 58 sec) 
Heartbeat CPU 0 instructions: 89000000 cycles: 261288554 heartbeat IPC: 0.353833 cumulative IPC: 0.337508 (Simulation time: 0 hr 7 min 4 sec) 
Heartbeat CPU 0 instructions: 90000003 cycles: 264294612 heartbeat IPC: 0.332663 cumulative IPC: 0.337453 (Simulation time: 0 hr 7 min 8 sec) 
Heartbeat CPU 0 instructions: 91000001 cycles: 267140810 heartbeat IPC: 0.351345 cumulative IPC: 0.337601 (Simulation time: 0 hr 7 min 12 sec) 
Heartbeat CPU 0 instructions: 92000003 cycles: 270117785 heartbeat IPC: 0.335912 cumulative IPC: 0.337582 (Simulation time: 0 hr 7 min 16 sec) 
Heartbeat CPU 0 instructions: 93000002 cycles: 273105047 heartbeat IPC: 0.334754 cumulative IPC: 0.337551 (Simulation time: 0 hr 7 min 20 sec) 
Heartbeat CPU 0 instructions: 94000003 cycles: 276030783 heartbeat IPC: 0.341795 cumulative IPC: 0.337596 (Simulation time: 0 hr 7 min 24 sec) 
Heartbeat CPU 0 instructions: 95000001 cycles: 279004059 heartbeat IPC: 0.336329 cumulative IPC: 0.337583 (Simulation time: 0 hr 7 min 28 sec) 
Heartbeat CPU 0 instructions: 96000000 cycles: 281867476 heartbeat IPC: 0.349233 cumulative IPC: 0.337701 (Simulation time: 0 hr 7 min 33 sec) 
Heartbeat CPU 0 instructions: 97000000 cycles: 284887138 heartbeat IPC: 0.331163 cumulative IPC: 0.337632 (Simulation time: 0 hr 7 min 37 sec) 
Heartbeat CPU 0 instructions: 98000003 cycles: 287815261 heartbeat IPC: 0.341517 cumulative IPC: 0.337672 (Simulation time: 0 hr 7 min 41 sec) 
Heartbeat CPU 0 instructions: 99000000 cycles: 290755310 heartbeat IPC: 0.340129 cumulative IPC: 0.337696 (Simulation time: 0 hr 7 min 45 sec) 
Heartbeat CPU 0 instructions: 100000003 cycles: 293752886 heartbeat IPC: 0.333604 cumulative IPC: 0.337655 (Simulation time: 0 hr 7 min 50 sec) 
Heartbeat CPU 0 instructions: 101000001 cycles: 296808000 heartbeat IPC: 0.327319 cumulative IPC: 0.337548 (Simulation time: 0 hr 7 min 54 sec) 
Heartbeat CPU 0 instructions: 102000003 cycles: 299542726 heartbeat IPC: 0.365668 cumulative IPC: 0.337805 (Simulation time: 0 hr 7 min 58 sec) 
Heartbeat CPU 0 instructions: 103000001 cycles: 302489186 heartbeat IPC: 0.33939 cumulative IPC: 0.337821 (Simulation time: 0 hr 8 min 2 sec) 
Heartbeat CPU 0 instructions: 104000000 cycles: 305485742 heartbeat IPC: 0.333716 cumulative IPC: 0.33778 (Simulation time: 0 hr 8 min 7 sec) 
Heartbeat CPU 0 instructions: 105000000 cycles: 308473763 heartbeat IPC: 0.33467 cumulative IPC: 0.33775 (Simulation time: 0 hr 8 min 11 sec) 
Heartbeat CPU 0 instructions: 106000000 cycles: 311462473 heartbeat IPC: 0.334593 cumulative IPC: 0.33772 (Simulation time: 0 hr 8 min 15 sec) 
Heartbeat CPU 0 instructions: 107000002 cycles: 314313100 heartbeat IPC: 0.350801 cumulative IPC: 0.337839 (Simulation time: 0 hr 8 min 19 sec) 
Heartbeat CPU 0 instructions: 108000002 cycles: 317236571 heartbeat IPC: 0.342059 cumulative IPC: 0.337878 (Simulation time: 0 hr 8 min 23 sec) 
Heartbeat CPU 0 instructions: 109000000 cycles: 320384823 heartbeat IPC: 0.317636 cumulative IPC: 0.337678 (Simulation time: 0 hr 8 min 27 sec) 
Heartbeat CPU 0 instructions: 110000000 cycles: 323425654 heartbeat IPC: 0.328857 cumulative IPC: 0.337595 (Simulation time: 0 hr 8 min 31 sec) 
Heartbeat CPU 0 instructions: 111000000 cycles: 326278608 heartbeat IPC: 0.350514 cumulative IPC: 0.337708 (Simulation time: 0 hr 8 min 35 sec) 
Heartbeat CPU 0 instructions: 112000003 cycles: 329190410 heartbeat IPC: 0.343431 cumulative IPC: 0.337759 (Simulation time: 0 hr 8 min 39 sec) 
Heartbeat CPU 0 instructions: 113000002 cycles: 332085810 heartbeat IPC: 0.345375 cumulative IPC: 0.337826 (Simulation time: 0 hr 8 min 43 sec) 
Heartbeat CPU 0 instructions: 114000000 cycles: 334997734 heartbeat IPC: 0.343415 cumulative IPC: 0.337874 (Simulation time: 0 hr 8 min 47 sec) 
Heartbeat CPU 0 instructions: 115000000 cycles: 338137234 heartbeat IPC: 0.318522 cumulative IPC: 0.337694 (Simulation time: 0 hr 8 min 51 sec) 
Heartbeat CPU 0 instructions: 116000000 cycles: 340908446 heartbeat IPC: 0.360853 cumulative IPC: 0.337883 (Simulation time: 0 hr 8 min 55 sec) 
Heartbeat CPU 0 instructions: 117000000 cycles: 344077247 heartbeat IPC: 0.315577 cumulative IPC: 0.337677 (Simulation time: 0 hr 9 min 0 sec) 
Heartbeat CPU 0 instructions: 118000000 cycles: 346954473 heartbeat IPC: 0.347557 cumulative IPC: 0.337759 (Simulation time: 0 hr 9 min 4 sec) 
Heartbeat CPU 0 instructions: 119000001 cycles: 349986630 heartbeat IPC: 0.329799 cumulative IPC: 0.33769 (Simulation time: 0 hr 9 min 8 sec) 
Heartbeat CPU 0 instructions: 120000001 cycles: 352894995 heartbeat IPC: 0.343836 cumulative IPC: 0.337741 (Simulation time: 0 hr 9 min 12 sec) 
Heartbeat CPU 0 instructions: 121000000 cycles: 355724586 heartbeat IPC: 0.353408 cumulative IPC: 0.337866 (Simulation time: 0 hr 9 min 16 sec) 
Heartbeat CPU 0 instructions: 122000001 cycles: 358815205 heartbeat IPC: 0.32356 cumulative IPC: 0.337742 (Simulation time: 0 hr 9 min 20 sec) 
Heartbeat CPU 0 instructions: 123000000 cycles: 361705488 heartbeat IPC: 0.345987 cumulative IPC: 0.337808 (Simulation time: 0 hr 9 min 24 sec) 
Heartbeat CPU 0 instructions: 124000001 cycles: 364611148 heartbeat IPC: 0.344156 cumulative IPC: 0.337859 (Simulation time: 0 hr 9 min 28 sec) 
Heartbeat CPU 0 instructions: 125000000 cycles: 367723219 heartbeat IPC: 0.321329 cumulative IPC: 0.337719 (Simulation time: 0 hr 9 min 32 sec) 
Heartbeat CPU 0 instructions: 126000001 cycles: 370952894 heartbeat IPC: 0.309629 cumulative IPC: 0.337474 (Simulation time: 0 hr 9 min 37 sec) 
Heartbeat CPU 0 instructions: 127000002 cycles: 373790406 heartbeat IPC: 0.352422 cumulative IPC: 0.337588 (Simulation time: 0 hr 9 min 41 sec) 
Heartbeat CPU 0 instructions: 128000002 cycles: 376637006 heartbeat IPC: 0.351296 cumulative IPC: 0.337691 (Simulation time: 0 hr 9 min 45 sec) 
Heartbeat CPU 0 instructions: 129000002 cycles: 380000508 heartbeat IPC: 0.297309 cumulative IPC: 0.337333 (Simulation time: 0 hr 9 min 49 sec) 
Heartbeat CPU 0 instructions: 130000000 cycles: 382522134 heartbeat IPC: 0.396569 cumulative IPC: 0.337724 (Simulation time: 0 hr 9 min 53 sec) 
Heartbeat CPU 0 instructions: 131000000 cycles: 385288115 heartbeat IPC: 0.361535 cumulative IPC: 0.337896 (Simulation time: 0 hr 9 min 57 sec) 
Heartbeat CPU 0 instructions: 132000000 cycles: 388311772 heartbeat IPC: 0.330725 cumulative IPC: 0.33784 (Simulation time: 0 hr 10 min 2 sec) 
Heartbeat CPU 0 instructions: 133000000 cycles: 391164706 heartbeat IPC: 0.350516 cumulative IPC: 0.337932 (Simulation time: 0 hr 10 min 6 sec) 
Heartbeat CPU 0 instructions: 134000001 cycles: 394111073 heartbeat IPC: 0.339401 cumulative IPC: 0.337943 (Simulation time: 0 hr 10 min 10 sec) 
Heartbeat CPU 0 instructions: 135000003 cycles: 397064246 heartbeat IPC: 0.33862 cumulative IPC: 0.337948 (Simulation time: 0 hr 10 min 14 sec) 
Heartbeat CPU 0 instructions: 136000000 cycles: 399998353 heartbeat IPC: 0.340818 cumulative IPC: 0.337969 (Simulation time: 0 hr 10 min 18 sec) 
Heartbeat CPU 0 instructions: 137000002 cycles: 402985579 heartbeat IPC: 0.334759 cumulative IPC: 0.337946 (Simulation time: 0 hr 10 min 22 sec) 
Heartbeat CPU 0 instructions: 138000002 cycles: 405928492 heartbeat IPC: 0.339799 cumulative IPC: 0.337959 (Simulation time: 0 hr 10 min 26 sec) 
Heartbeat CPU 0 instructions: 139000002 cycles: 408828960 heartbeat IPC: 0.344772 cumulative IPC: 0.338007 (Simulation time: 0 hr 10 min 30 sec) 
Heartbeat CPU 0 instructions: 140000000 cycles: 411845264 heartbeat IPC: 0.331531 cumulative IPC: 0.33796 (Simulation time: 0 hr 10 min 35 sec) 
Heartbeat CPU 0 instructions: 141000000 cycles: 415087490 heartbeat IPC: 0.30843 cumulative IPC: 0.337729 (Simulation time: 0 hr 10 min 42 sec) 
Heartbeat CPU 0 instructions: 142000001 cycles: 417877615 heartbeat IPC: 0.358407 cumulative IPC: 0.337867 (Simulation time: 0 hr 10 min 46 sec) 
Heartbeat CPU 0 instructions: 143000000 cycles: 421009253 heartbeat IPC: 0.319321 cumulative IPC: 0.337729 (Simulation time: 0 hr 10 min 50 sec) 
Heartbeat CPU 0 instructions: 144000001 cycles: 423740460 heartbeat IPC: 0.366139 cumulative IPC: 0.337912 (Simulation time: 0 hr 10 min 54 sec) 
Heartbeat CPU 0 instructions: 145000003 cycles: 426809123 heartbeat IPC: 0.325875 cumulative IPC: 0.337826 (Simulation time: 0 hr 10 min 58 sec) 
Heartbeat CPU 0 instructions: 146000000 cycles: 429715185 heartbeat IPC: 0.344107 cumulative IPC: 0.337868 (Simulation time: 0 hr 11 min 3 sec) 
Heartbeat CPU 0 instructions: 147000000 cycles: 432959908 heartbeat IPC: 0.308193 cumulative IPC: 0.337646 (Simulation time: 0 hr 11 min 8 sec) 
Heartbeat CPU 0 instructions: 148000003 cycles: 435778583 heartbeat IPC: 0.354778 cumulative IPC: 0.337757 (Simulation time: 0 hr 11 min 12 sec) 
Heartbeat CPU 0 instructions: 149000001 cycles: 438750940 heartbeat IPC: 0.336433 cumulative IPC: 0.337748 (Simulation time: 0 hr 11 min 16 sec) 
Heartbeat CPU 0 instructions: 150000002 cycles: 441694085 heartbeat IPC: 0.339773 cumulative IPC: 0.337761 (Simulation time: 0 hr 11 min 20 sec) 
Heartbeat CPU 0 instructions: 151000002 cycles: 444651239 heartbeat IPC: 0.338163 cumulative IPC: 0.337764 (Simulation time: 0 hr 11 min 24 sec) 
Heartbeat CPU 0 instructions: 152000001 cycles: 447698720 heartbeat IPC: 0.32814 cumulative IPC: 0.337698 (Simulation time: 0 hr 11 min 28 sec) 
Heartbeat CPU 0 instructions: 153000002 cycles: 450686192 heartbeat IPC: 0.334732 cumulative IPC: 0.337678 (Simulation time: 0 hr 11 min 32 sec) 
Heartbeat CPU 0 instructions: 154000000 cycles: 453595369 heartbeat IPC: 0.343739 cumulative IPC: 0.337717 (Simulation time: 0 hr 11 min 36 sec) 
Heartbeat CPU 0 instructions: 155000003 cycles: 456638881 heartbeat IPC: 0.328569 cumulative IPC: 0.337656 (Simulation time: 0 hr 11 min 40 sec) 
Heartbeat CPU 0 instructions: 156000002 cycles: 459518042 heartbeat IPC: 0.347323 cumulative IPC: 0.337717 (Simulation time: 0 hr 11 min 44 sec) 
Heartbeat CPU 0 instructions: 157000001 cycles: 462463237 heartbeat IPC: 0.339536 cumulative IPC: 0.337729 (Simulation time: 0 hr 11 min 48 sec) 
Heartbeat CPU 0 instructions: 158000003 cycles: 465380982 heartbeat IPC: 0.342731 cumulative IPC: 0.33776 (Simulation time: 0 hr 11 min 52 sec) 
Heartbeat CPU 0 instructions: 159000000 cycles: 468485933 heartbeat IPC: 0.322065 cumulative IPC: 0.337656 (Simulation time: 0 hr 11 min 56 sec) 
Heartbeat CPU 0 instructions: 160000001 cycles: 471298197 heartbeat IPC: 0.355586 cumulative IPC: 0.337763 (Simulation time: 0 hr 12 min 0 sec) 
Heartbeat CPU 0 instructions: 161000003 cycles: 474125457 heartbeat IPC: 0.3537 cumulative IPC: 0.337858 (Simulation time: 0 hr 12 min 4 sec) 
Heartbeat CPU 0 instructions: 162000003 cycles: 477177299 heartbeat IPC: 0.327671 cumulative IPC: 0.337793 (Simulation time: 0 hr 12 min 8 sec) 
Heartbeat CPU 0 instructions: 163000000 cycles: 480093243 heartbeat IPC: 0.342941 cumulative IPC: 0.337824 (Simulation time: 0 hr 12 min 12 sec) 
Heartbeat CPU 0 instructions: 164000000 cycles: 483142649 heartbeat IPC: 0.327933 cumulative IPC: 0.337762 (Simulation time: 0 hr 12 min 17 sec) 
Heartbeat CPU 0 instructions: 165000000 cycles: 485938657 heartbeat IPC: 0.357653 cumulative IPC: 0.337876 (Simulation time: 0 hr 12 min 21 sec) 
Heartbeat CPU 0 instructions: 166000001 cycles: 488789981 heartbeat IPC: 0.350715 cumulative IPC: 0.337951 (Simulation time: 0 hr 12 min 25 sec) 
Heartbeat CPU 0 instructions: 167000003 cycles: 491855395 heartbeat IPC: 0.326221 cumulative IPC: 0.337878 (Simulation time: 0 hr 12 min 29 sec) 
Heartbeat CPU 0 instructions: 168000002 cycles: 494657517 heartbeat IPC: 0.356872 cumulative IPC: 0.337986 (Simulation time: 0 hr 12 min 33 sec) 
Heartbeat CPU 0 instructions: 169000001 cycles: 497651869 heartbeat IPC: 0.333962 cumulative IPC: 0.337961 (Simulation time: 0 hr 12 min 38 sec) 
Heartbeat CPU 0 instructions: 170000001 cycles: 500577022 heartbeat IPC: 0.341862 cumulative IPC: 0.337984 (Simulation time: 0 hr 12 min 42 sec) 
Heartbeat CPU 0 instructions: 171000002 cycles: 503426229 heartbeat IPC: 0.350975 cumulative IPC: 0.338058 (Simulation time: 0 hr 12 min 46 sec) 
Heartbeat CPU 0 instructions: 172000001 cycles: 506494459 heartbeat IPC: 0.32592 cumulative IPC: 0.337984 (Simulation time: 0 hr 12 min 50 sec) 
Heartbeat CPU 0 instructions: 173000003 cycles: 509406909 heartbeat IPC: 0.343354 cumulative IPC: 0.338015 (Simulation time: 0 hr 12 min 55 sec) 
Heartbeat CPU 0 instructions: 174000000 cycles: 512548295 heartbeat IPC: 0.31833 cumulative IPC: 0.337894 (Simulation time: 0 hr 12 min 59 sec) 
Heartbeat CPU 0 instructions: 175000002 cycles: 515305709 heartbeat IPC: 0.362659 cumulative IPC: 0.338027 (Simulation time: 0 hr 13 min 3 sec) 
Heartbeat CPU 0 instructions: 176000000 cycles: 518025621 heartbeat IPC: 0.367658 cumulative IPC: 0.338183 (Simulation time: 0 hr 13 min 7 sec) 
Heartbeat CPU 0 instructions: 177000001 cycles: 521157795 heartbeat IPC: 0.319267 cumulative IPC: 0.338069 (Simulation time: 0 hr 13 min 12 sec) 
Heartbeat CPU 0 instructions: 178000000 cycles: 523796274 heartbeat IPC: 0.379006 cumulative IPC: 0.338275 (Simulation time: 0 hr 13 min 16 sec) 
Heartbeat CPU 0 instructions: 179000001 cycles: 526783493 heartbeat IPC: 0.33476 cumulative IPC: 0.338255 (Simulation time: 0 hr 13 min 20 sec) 
Heartbeat CPU 0 instructions: 180000000 cycles: 529729898 heartbeat IPC: 0.339396 cumulative IPC: 0.338262 (Simulation time: 0 hr 13 min 25 sec) 
Heartbeat CPU 0 instructions: 181000000 cycles: 532846052 heartbeat IPC: 0.320908 cumulative IPC: 0.33816 (Simulation time: 0 hr 13 min 29 sec) 
Heartbeat CPU 0 instructions: 182000002 cycles: 535790268 heartbeat IPC: 0.33965 cumulative IPC: 0.338168 (Simulation time: 0 hr 13 min 33 sec) 
Heartbeat CPU 0 instructions: 183000002 cycles: 538685609 heartbeat IPC: 0.345382 cumulative IPC: 0.338207 (Simulation time: 0 hr 13 min 38 sec) 
Heartbeat CPU 0 instructions: 184000000 cycles: 541607773 heartbeat IPC: 0.342211 cumulative IPC: 0.338229 (Simulation time: 0 hr 13 min 42 sec) 
Heartbeat CPU 0 instructions: 185000002 cycles: 544486243 heartbeat IPC: 0.347407 cumulative IPC: 0.338277 (Simulation time: 0 hr 13 min 46 sec) 
Heartbeat CPU 0 instructions: 186000000 cycles: 547654508 heartbeat IPC: 0.31563 cumulative IPC: 0.338146 (Simulation time: 0 hr 13 min 51 sec) 
Heartbeat CPU 0 instructions: 187000000 cycles: 550518066 heartbeat IPC: 0.349216 cumulative IPC: 0.338204 (Simulation time: 0 hr 13 min 55 sec) 
Heartbeat CPU 0 instructions: 188000002 cycles: 553400571 heartbeat IPC: 0.346921 cumulative IPC: 0.338249 (Simulation time: 0 hr 13 min 59 sec) 
Heartbeat CPU 0 instructions: 189000001 cycles: 556016583 heartbeat IPC: 0.382261 cumulative IPC: 0.338457 (Simulation time: 0 hr 14 min 3 sec) 
Heartbeat CPU 0 instructions: 190000000 cycles: 558895910 heartbeat IPC: 0.347303 cumulative IPC: 0.338502 (Simulation time: 0 hr 14 min 7 sec) 
Heartbeat CPU 0 instructions: 191000000 cycles: 561924668 heartbeat IPC: 0.330168 cumulative IPC: 0.338457 (Simulation time: 0 hr 14 min 12 sec) 
Heartbeat CPU 0 instructions: 192000002 cycles: 565086611 heartbeat IPC: 0.316262 cumulative IPC: 0.338333 (Simulation time: 0 hr 14 min 16 sec) 
Heartbeat CPU 0 instructions: 193000001 cycles: 567823985 heartbeat IPC: 0.365313 cumulative IPC: 0.338463 (Simulation time: 0 hr 14 min 20 sec) 
Heartbeat CPU 0 instructions: 194000003 cycles: 570920508 heartbeat IPC: 0.322944 cumulative IPC: 0.338379 (Simulation time: 0 hr 14 min 25 sec) 
Heartbeat CPU 0 instructions: 195000001 cycles: 573909631 heartbeat IPC: 0.334546 cumulative IPC: 0.338359 (Simulation time: 0 hr 14 min 29 sec) 
Heartbeat CPU 0 instructions: 196000000 cycles: 576843814 heartbeat IPC: 0.34081 cumulative IPC: 0.338371 (Simulation time: 0 hr 14 min 33 sec) 
Heartbeat CPU 0 instructions: 197000000 cycles: 579893650 heartbeat IPC: 0.327886 cumulative IPC: 0.338316 (Simulation time: 0 hr 14 min 37 sec) 
Heartbeat CPU 0 instructions: 198000000 cycles: 582724456 heartbeat IPC: 0.353256 cumulative IPC: 0.338389 (Simulation time: 0 hr 14 min 42 sec) 
Heartbeat CPU 0 instructions: 199000001 cycles: 585729792 heartbeat IPC: 0.332742 cumulative IPC: 0.33836 (Simulation time: 0 hr 14 min 46 sec) 
Heartbeat CPU 0 instructions: 200000000 cycles: 588898752 heartbeat IPC: 0.315561 cumulative IPC: 0.338237 (Simulation time: 0 hr 14 min 50 sec) 
Heartbeat CPU 0 instructions: 201000000 cycles: 591644595 heartbeat IPC: 0.364187 cumulative IPC: 0.338358 (Simulation time: 0 hr 14 min 55 sec) 
Heartbeat CPU 0 instructions: 202000003 cycles: 594795542 heartbeat IPC: 0.317366 cumulative IPC: 0.338246 (Simulation time: 0 hr 14 min 59 sec) 
Heartbeat CPU 0 instructions: 203000003 cycles: 597683716 heartbeat IPC: 0.34624 cumulative IPC: 0.338285 (Simulation time: 0 hr 15 min 4 sec) 
Heartbeat CPU 0 instructions: 204000001 cycles: 600552562 heartbeat IPC: 0.348572 cumulative IPC: 0.338334 (Simulation time: 0 hr 15 min 10 sec) 
Heartbeat CPU 0 instructions: 205000000 cycles: 603536018 heartbeat IPC: 0.335181 cumulative IPC: 0.338318 (Simulation time: 0 hr 15 min 15 sec) 
Heartbeat CPU 0 instructions: 206000002 cycles: 606549527 heartbeat IPC: 0.33184 cumulative IPC: 0.338286 (Simulation time: 0 hr 15 min 19 sec) 
Heartbeat CPU 0 instructions: 207000002 cycles: 609469792 heartbeat IPC: 0.342435 cumulative IPC: 0.338306 (Simulation time: 0 hr 15 min 23 sec) 
Heartbeat CPU 0 instructions: 208000000 cycles: 612467702 heartbeat IPC: 0.333565 cumulative IPC: 0.338283 (Simulation time: 0 hr 15 min 27 sec) 
Heartbeat CPU 0 instructions: 209000000 cycles: 615967477 heartbeat IPC: 0.285733 cumulative IPC: 0.337984 (Simulation time: 0 hr 15 min 32 sec) 
Heartbeat CPU 0 instructions: 210000000 cycles: 618688192 heartbeat IPC: 0.36755 cumulative IPC: 0.338114 (Simulation time: 0 hr 15 min 36 sec) 
Heartbeat CPU 0 instructions: 211000001 cycles: 621276929 heartbeat IPC: 0.386289 cumulative IPC: 0.338315 (Simulation time: 0 hr 15 min 41 sec) 
Heartbeat CPU 0 instructions: 212000001 cycles: 624298483 heartbeat IPC: 0.330956 cumulative IPC: 0.338279 (Simulation time: 0 hr 15 min 47 sec) 
Heartbeat CPU 0 instructions: 213000000 cycles: 627335834 heartbeat IPC: 0.329234 cumulative IPC: 0.338236 (Simulation time: 0 hr 15 min 53 sec) 
Heartbeat CPU 0 instructions: 214000000 cycles: 630335535 heartbeat IPC: 0.333367 cumulative IPC: 0.338212 (Simulation time: 0 hr 16 min 1 sec) 
Heartbeat CPU 0 instructions: 215000000 cycles: 633329255 heartbeat IPC: 0.334033 cumulative IPC: 0.338193 (Simulation time: 0 hr 16 min 8 sec) 
Heartbeat CPU 0 instructions: 216000001 cycles: 636229661 heartbeat IPC: 0.34478 cumulative IPC: 0.338223 (Simulation time: 0 hr 16 min 14 sec) 
Heartbeat CPU 0 instructions: 217000001 cycles: 639216136 heartbeat IPC: 0.334843 cumulative IPC: 0.338207 (Simulation time: 0 hr 16 min 19 sec) 
Heartbeat CPU 0 instructions: 218000002 cycles: 642431519 heartbeat IPC: 0.311005 cumulative IPC: 0.338071 (Simulation time: 0 hr 16 min 26 sec) 
Heartbeat CPU 0 instructions: 219000001 cycles: 645454049 heartbeat IPC: 0.330848 cumulative IPC: 0.338037 (Simulation time: 0 hr 16 min 32 sec) 
Heartbeat CPU 0 instructions: 220000000 cycles: 648456197 heartbeat IPC: 0.333095 cumulative IPC: 0.338014 (Simulation time: 0 hr 16 min 39 sec) 
Heartbeat CPU 0 instructions: 221000001 cycles: 651518599 heartbeat IPC: 0.326541 cumulative IPC: 0.33796 (Simulation time: 0 hr 16 min 43 sec) 
Heartbeat CPU 0 instructions: 222000002 cycles: 654408765 heartbeat IPC: 0.346001 cumulative IPC: 0.337995 (Simulation time: 0 hr 16 min 47 sec) 
Heartbeat CPU 0 instructions: 223000003 cycles: 657461164 heartbeat IPC: 0.327612 cumulative IPC: 0.337947 (Simulation time: 0 hr 16 min 51 sec) 
Heartbeat CPU 0 instructions: 224000000 cycles: 660304573 heartbeat IPC: 0.351689 cumulative IPC: 0.338006 (Simulation time: 0 hr 16 min 55 sec) 
Heartbeat CPU 0 instructions: 225000000 cycles: 663257132 heartbeat IPC: 0.338689 cumulative IPC: 0.338009 (Simulation time: 0 hr 16 min 59 sec) 
Heartbeat CPU 0 instructions: 226000000 cycles: 666260708 heartbeat IPC: 0.332936 cumulative IPC: 0.337987 (Simulation time: 0 hr 17 min 4 sec) 
Heartbeat CPU 0 instructions: 227000002 cycles: 669123156 heartbeat IPC: 0.349352 cumulative IPC: 0.338035 (Simulation time: 0 hr 17 min 8 sec) 
Heartbeat CPU 0 instructions: 228000000 cycles: 672100771 heartbeat IPC: 0.335839 cumulative IPC: 0.338026 (Simulation time: 0 hr 17 min 12 sec) 
Heartbeat CPU 0 instructions: 229000000 cycles: 675211572 heartbeat IPC: 0.321461 cumulative IPC: 0.337949 (Simulation time: 0 hr 17 min 16 sec) 
Heartbeat CPU 0 instructions: 230000001 cycles: 678111359 heartbeat IPC: 0.344853 cumulative IPC: 0.337979 (Simulation time: 0 hr 17 min 20 sec) 
Heartbeat CPU 0 instructions: 231000000 cycles: 681062823 heartbeat IPC: 0.338815 cumulative IPC: 0.337982 (Simulation time: 0 hr 17 min 24 sec) 
Heartbeat CPU 0 instructions: 232000000 cycles: 683987730 heartbeat IPC: 0.341891 cumulative IPC: 0.337999 (Simulation time: 0 hr 17 min 28 sec) 
Heartbeat CPU 0 instructions: 233000000 cycles: 687153823 heartbeat IPC: 0.315847 cumulative IPC: 0.337897 (Simulation time: 0 hr 17 min 36 sec) 
Heartbeat CPU 0 instructions: 234000002 cycles: 690217767 heartbeat IPC: 0.326377 cumulative IPC: 0.337846 (Simulation time: 0 hr 17 min 42 sec) 
Heartbeat CPU 0 instructions: 235000001 cycles: 693032088 heartbeat IPC: 0.355325 cumulative IPC: 0.337917 (Simulation time: 0 hr 17 min 47 sec) 
Heartbeat CPU 0 instructions: 236000000 cycles: 695882180 heartbeat IPC: 0.350866 cumulative IPC: 0.33797 (Simulation time: 0 hr 17 min 51 sec) 
Heartbeat CPU 0 instructions: 237000000 cycles: 698669805 heartbeat IPC: 0.358728 cumulative IPC: 0.338053 (Simulation time: 0 hr 17 min 55 sec) 
Heartbeat CPU 0 instructions: 238000000 cycles: 701628302 heartbeat IPC: 0.338009 cumulative IPC: 0.338053 (Simulation time: 0 hr 17 min 59 sec) 
Heartbeat CPU 0 instructions: 239000000 cycles: 704688089 heartbeat IPC: 0.32682 cumulative IPC: 0.338004 (Simulation time: 0 hr 18 min 4 sec) 
Heartbeat CPU 0 instructions: 240000001 cycles: 707714589 heartbeat IPC: 0.330415 cumulative IPC: 0.337971 (Simulation time: 0 hr 18 min 8 sec) 
Heartbeat CPU 0 instructions: 241000000 cycles: 710753323 heartbeat IPC: 0.329084 cumulative IPC: 0.337933 (Simulation time: 0 hr 18 min 12 sec) 
Heartbeat CPU 0 instructions: 242000000 cycles: 713630077 heartbeat IPC: 0.347614 cumulative IPC: 0.337972 (Simulation time: 0 hr 18 min 16 sec) 
Heartbeat CPU 0 instructions: 243000000 cycles: 716220829 heartbeat IPC: 0.385988 cumulative IPC: 0.338146 (Simulation time: 0 hr 18 min 20 sec) 
Heartbeat CPU 0 instructions: 244000000 cycles: 718958203 heartbeat IPC: 0.365314 cumulative IPC: 0.33825 (Simulation time: 0 hr 18 min 25 sec) 
Heartbeat CPU 0 instructions: 245000000 cycles: 721859656 heartbeat IPC: 0.344655 cumulative IPC: 0.338275 (Simulation time: 0 hr 18 min 29 sec) 
Heartbeat CPU 0 instructions: 246000000 cycles: 724754249 heartbeat IPC: 0.345472 cumulative IPC: 0.338304 (Simulation time: 0 hr 18 min 33 sec) 
Heartbeat CPU 0 instructions: 247000001 cycles: 727762379 heartbeat IPC: 0.332433 cumulative IPC: 0.33828 (Simulation time: 0 hr 18 min 37 sec) 
Heartbeat CPU 0 instructions: 248000001 cycles: 730592398 heartbeat IPC: 0.353355 cumulative IPC: 0.338338 (Simulation time: 0 hr 18 min 41 sec) 
Heartbeat CPU 0 instructions: 249000001 cycles: 733613566 heartbeat IPC: 0.330998 cumulative IPC: 0.338308 (Simulation time: 0 hr 18 min 46 sec) 
Heartbeat CPU 0 instructions: 250000000 cycles: 736444949 heartbeat IPC: 0.353184 cumulative IPC: 0.338365 (Simulation time: 0 hr 18 min 50 sec) 
Heartbeat CPU 0 instructions: 251000000 cycles: 739326161 heartbeat IPC: 0.347076 cumulative IPC: 0.338399 (Simulation time: 0 hr 18 min 54 sec) 
Heartbeat CPU 0 instructions: 252000000 cycles: 742392865 heartbeat IPC: 0.326083 cumulative IPC: 0.338348 (Simulation time: 0 hr 18 min 58 sec) 
Heartbeat CPU 0 instructions: 253000000 cycles: 745284273 heartbeat IPC: 0.345852 cumulative IPC: 0.338377 (Simulation time: 0 hr 19 min 3 sec) 
Heartbeat CPU 0 instructions: 254000003 cycles: 748325662 heartbeat IPC: 0.328798 cumulative IPC: 0.338338 (Simulation time: 0 hr 19 min 8 sec) 
Heartbeat CPU 0 instructions: 255000000 cycles: 751096223 heartbeat IPC: 0.360937 cumulative IPC: 0.338422 (Simulation time: 0 hr 19 min 14 sec) 
Heartbeat CPU 0 instructions: 256000000 cycles: 753673122 heartbeat IPC: 0.388063 cumulative IPC: 0.338592 (Simulation time: 0 hr 19 min 18 sec) 
Heartbeat CPU 0 instructions: 257000003 cycles: 756633160 heartbeat IPC: 0.337835 cumulative IPC: 0.338589 (Simulation time: 0 hr 19 min 22 sec) 
Heartbeat CPU 0 instructions: 258000000 cycles: 759605986 heartbeat IPC: 0.336379 cumulative IPC: 0.33858 (Simulation time: 0 hr 19 min 26 sec) 
Heartbeat CPU 0 instructions: 259000000 cycles: 762625598 heartbeat IPC: 0.331168 cumulative IPC: 0.338551 (Simulation time: 0 hr 19 min 31 sec) 
Heartbeat CPU 0 instructions: 260000001 cycles: 765487281 heartbeat IPC: 0.349445 cumulative IPC: 0.338592 (Simulation time: 0 hr 19 min 35 sec) 
Heartbeat CPU 0 instructions: 261000003 cycles: 768601053 heartbeat IPC: 0.321155 cumulative IPC: 0.338521 (Simulation time: 0 hr 19 min 39 sec) 
Heartbeat CPU 0 instructions: 262000000 cycles: 771469292 heartbeat IPC: 0.348645 cumulative IPC: 0.338559 (Simulation time: 0 hr 19 min 44 sec) 
Heartbeat CPU 0 instructions: 263000000 cycles: 774494444 heartbeat IPC: 0.330562 cumulative IPC: 0.338527 (Simulation time: 0 hr 19 min 48 sec) 
Heartbeat CPU 0 instructions: 264000000 cycles: 777613513 heartbeat IPC: 0.320608 cumulative IPC: 0.338455 (Simulation time: 0 hr 19 min 52 sec) 
Heartbeat CPU 0 instructions: 265000001 cycles: 780405793 heartbeat IPC: 0.358131 cumulative IPC: 0.338526 (Simulation time: 0 hr 19 min 57 sec) 
Heartbeat CPU 0 instructions: 266000000 cycles: 783313664 heartbeat IPC: 0.343894 cumulative IPC: 0.338546 (Simulation time: 0 hr 20 min 1 sec) 
Heartbeat CPU 0 instructions: 267000002 cycles: 786227121 heartbeat IPC: 0.343236 cumulative IPC: 0.338563 (Simulation time: 0 hr 20 min 5 sec) 
Heartbeat CPU 0 instructions: 268000000 cycles: 789144894 heartbeat IPC: 0.342726 cumulative IPC: 0.338579 (Simulation time: 0 hr 20 min 9 sec) 
Heartbeat CPU 0 instructions: 269000003 cycles: 792260413 heartbeat IPC: 0.320975 cumulative IPC: 0.338509 (Simulation time: 0 hr 20 min 14 sec) 
Heartbeat CPU 0 instructions: 270000000 cycles: 795109592 heartbeat IPC: 0.350977 cumulative IPC: 0.338554 (Simulation time: 0 hr 20 min 18 sec) 
Heartbeat CPU 0 instructions: 271000000 cycles: 798746760 heartbeat IPC: 0.274939 cumulative IPC: 0.338264 (Simulation time: 0 hr 20 min 23 sec) 
Heartbeat CPU 0 instructions: 272000001 cycles: 801651044 heartbeat IPC: 0.344319 cumulative IPC: 0.338286 (Simulation time: 0 hr 20 min 27 sec) 
Heartbeat CPU 0 instructions: 273000000 cycles: 804710558 heartbeat IPC: 0.326849 cumulative IPC: 0.338243 (Simulation time: 0 hr 20 min 31 sec) 
Heartbeat CPU 0 instructions: 274000002 cycles: 807912868 heartbeat IPC: 0.312275 cumulative IPC: 0.33814 (Simulation time: 0 hr 20 min 35 sec) 
Heartbeat CPU 0 instructions: 275000000 cycles: 810741683 heartbeat IPC: 0.353504 cumulative IPC: 0.338193 (Simulation time: 0 hr 20 min 40 sec) 
Heartbeat CPU 0 instructions: 276000001 cycles: 813749516 heartbeat IPC: 0.332466 cumulative IPC: 0.338172 (Simulation time: 0 hr 20 min 46 sec) 
Heartbeat CPU 0 instructions: 277000000 cycles: 816575083 heartbeat IPC: 0.353911 cumulative IPC: 0.338226 (Simulation time: 0 hr 20 min 50 sec) 
Heartbeat CPU 0 instructions: 278000000 cycles: 819676907 heartbeat IPC: 0.322391 cumulative IPC: 0.338167 (Simulation time: 0 hr 20 min 54 sec) 
Heartbeat CPU 0 instructions: 279000002 cycles: 822514262 heartbeat IPC: 0.352442 cumulative IPC: 0.338216 (Simulation time: 0 hr 20 min 58 sec) 
Heartbeat CPU 0 instructions: 280000000 cycles: 825483987 heartbeat IPC: 0.336731 cumulative IPC: 0.33821 (Simulation time: 0 hr 21 min 2 sec) 
Heartbeat CPU 0 instructions: 281000001 cycles: 828523856 heartbeat IPC: 0.328962 cumulative IPC: 0.338176 (Simulation time: 0 hr 21 min 6 sec) 
Heartbeat CPU 0 instructions: 282000002 cycles: 831464240 heartbeat IPC: 0.340092 cumulative IPC: 0.338183 (Simulation time: 0 hr 21 min 10 sec) 
Heartbeat CPU 0 instructions: 283000000 cycles: 834347170 heartbeat IPC: 0.346869 cumulative IPC: 0.338213 (Simulation time: 0 hr 21 min 15 sec) 
Heartbeat CPU 0 instructions: 284000000 cycles: 837095692 heartbeat IPC: 0.363832 cumulative IPC: 0.338297 (Simulation time: 0 hr 21 min 19 sec) 
Heartbeat CPU 0 instructions: 285000000 cycles: 840149484 heartbeat IPC: 0.327462 cumulative IPC: 0.338258 (Simulation time: 0 hr 21 min 23 sec) 
Heartbeat CPU 0 instructions: 286000000 cycles: 843046632 heartbeat IPC: 0.345167 cumulative IPC: 0.338282 (Simulation time: 0 hr 21 min 27 sec) 
Heartbeat CPU 0 instructions: 287000001 cycles: 846016357 heartbeat IPC: 0.336732 cumulative IPC: 0.338276 (Simulation time: 0 hr 21 min 31 sec) 
Heartbeat CPU 0 instructions: 288000001 cycles: 848982358 heartbeat IPC: 0.337154 cumulative IPC: 0.338272 (Simulation time: 0 hr 21 min 35 sec) 
Heartbeat CPU 0 instructions: 289000000 cycles: 851917427 heartbeat IPC: 0.340707 cumulative IPC: 0.338281 (Simulation time: 0 hr 21 min 39 sec) 
Heartbeat CPU 0 instructions: 290000003 cycles: 855383726 heartbeat IPC: 0.288493 cumulative IPC: 0.338079 (Simulation time: 0 hr 21 min 46 sec) 
Heartbeat CPU 0 instructions: 291000000 cycles: 858030073 heartbeat IPC: 0.377878 cumulative IPC: 0.338202 (Simulation time: 0 hr 21 min 54 sec) 
Heartbeat CPU 0 instructions: 292000000 cycles: 860924894 heartbeat IPC: 0.345445 cumulative IPC: 0.338226 (Simulation time: 0 hr 22 min 1 sec) 
Heartbeat CPU 0 instructions: 293000000 cycles: 863807601 heartbeat IPC: 0.346896 cumulative IPC: 0.338255 (Simulation time: 0 hr 22 min 8 sec) 
Heartbeat CPU 0 instructions: 294000001 cycles: 866717928 heartbeat IPC: 0.343604 cumulative IPC: 0.338273 (Simulation time: 0 hr 22 min 16 sec) 
Heartbeat CPU 0 instructions: 295000000 cycles: 869726745 heartbeat IPC: 0.332356 cumulative IPC: 0.338253 (Simulation time: 0 hr 22 min 23 sec) 
Heartbeat CPU 0 instructions: 296000001 cycles: 872815461 heartbeat IPC: 0.323759 cumulative IPC: 0.338201 (Simulation time: 0 hr 22 min 31 sec) 
Heartbeat CPU 0 instructions: 297000000 cycles: 875668399 heartbeat IPC: 0.350516 cumulative IPC: 0.338241 (Simulation time: 0 hr 22 min 38 sec) 
Heartbeat CPU 0 instructions: 298000001 cycles: 878575132 heartbeat IPC: 0.344029 cumulative IPC: 0.338261 (Simulation time: 0 hr 22 min 44 sec) 
Heartbeat CPU 0 instructions: 299000000 cycles: 881483997 heartbeat IPC: 0.343776 cumulative IPC: 0.338279 (Simulation time: 0 hr 22 min 48 sec) 
Heartbeat CPU 0 instructions: 300000000 cycles: 884192519 heartbeat IPC: 0.369205 cumulative IPC: 0.338374 (Simulation time: 0 hr 22 min 53 sec) 
Heartbeat CPU 0 instructions: 301000000 cycles: 887263847 heartbeat IPC: 0.325592 cumulative IPC: 0.338329 (Simulation time: 0 hr 22 min 57 sec) 
Heartbeat CPU 0 instructions: 302000002 cycles: 890012366 heartbeat IPC: 0.363833 cumulative IPC: 0.338408 (Simulation time: 0 hr 23 min 1 sec) 
Heartbeat CPU 0 instructions: 303000001 cycles: 892980477 heartbeat IPC: 0.336914 cumulative IPC: 0.338403 (Simulation time: 0 hr 23 min 5 sec) 
Heartbeat CPU 0 instructions: 304000001 cycles: 895960356 heartbeat IPC: 0.335584 cumulative IPC: 0.338394 (Simulation time: 0 hr 23 min 9 sec) 
Heartbeat CPU 0 instructions: 305000003 cycles: 898884297 heartbeat IPC: 0.342005 cumulative IPC: 0.338406 (Simulation time: 0 hr 23 min 13 sec) 
Heartbeat CPU 0 instructions: 306000000 cycles: 901782695 heartbeat IPC: 0.345017 cumulative IPC: 0.338427 (Simulation time: 0 hr 23 min 17 sec) 
Heartbeat CPU 0 instructions: 307000002 cycles: 904814936 heartbeat IPC: 0.32979 cumulative IPC: 0.338398 (Simulation time: 0 hr 23 min 21 sec) 
Heartbeat CPU 0 instructions: 308000000 cycles: 907676170 heartbeat IPC: 0.349499 cumulative IPC: 0.338433 (Simulation time: 0 hr 23 min 25 sec) 
Heartbeat CPU 0 instructions: 309000002 cycles: 910743104 heartbeat IPC: 0.326059 cumulative IPC: 0.338391 (Simulation time: 0 hr 23 min 29 sec) 
Heartbeat CPU 0 instructions: 310000000 cycles: 914115325 heartbeat IPC: 0.29654 cumulative IPC: 0.338237 (Simulation time: 0 hr 23 min 33 sec) 
Heartbeat CPU 0 instructions: 311000001 cycles: 917120875 heartbeat IPC: 0.332718 cumulative IPC: 0.338219 (Simulation time: 0 hr 23 min 37 sec) 
Heartbeat CPU 0 instructions: 312000000 cycles: 919953114 heartbeat IPC: 0.353077 cumulative IPC: 0.338264 (Simulation time: 0 hr 23 min 41 sec) 
Heartbeat CPU 0 instructions: 313000003 cycles: 922844901 heartbeat IPC: 0.345808 cumulative IPC: 0.338288 (Simulation time: 0 hr 23 min 45 sec) 
Heartbeat CPU 0 instructions: 314000001 cycles: 925923087 heartbeat IPC: 0.324866 cumulative IPC: 0.338243 (Simulation time: 0 hr 23 min 50 sec) 
Heartbeat CPU 0 instructions: 315000000 cycles: 928791109 heartbeat IPC: 0.348672 cumulative IPC: 0.338276 (Simulation time: 0 hr 23 min 56 sec) 
Heartbeat CPU 0 instructions: 316000000 cycles: 931669422 heartbeat IPC: 0.347426 cumulative IPC: 0.338304 (Simulation time: 0 hr 24 min 2 sec) 
Heartbeat CPU 0 instructions: 317000001 cycles: 934613623 heartbeat IPC: 0.339651 cumulative IPC: 0.338308 (Simulation time: 0 hr 24 min 6 sec) 
Heartbeat CPU 0 instructions: 318000003 cycles: 937637131 heartbeat IPC: 0.330742 cumulative IPC: 0.338284 (Simulation time: 0 hr 24 min 11 sec) 
Heartbeat CPU 0 instructions: 319000000 cycles: 940562875 heartbeat IPC: 0.341792 cumulative IPC: 0.338295 (Simulation time: 0 hr 24 min 15 sec) 
Heartbeat CPU 0 instructions: 320000000 cycles: 943611285 heartbeat IPC: 0.32804 cumulative IPC: 0.338261 (Simulation time: 0 hr 24 min 19 sec) 
Heartbeat CPU 0 instructions: 321000000 cycles: 946555495 heartbeat IPC: 0.33965 cumulative IPC: 0.338266 (Simulation time: 0 hr 24 min 24 sec) 
Heartbeat CPU 0 instructions: 322000001 cycles: 949525472 heartbeat IPC: 0.336703 cumulative IPC: 0.338261 (Simulation time: 0 hr 24 min 28 sec) 
Heartbeat CPU 0 instructions: 323000000 cycles: 952540001 heartbeat IPC: 0.331726 cumulative IPC: 0.33824 (Simulation time: 0 hr 24 min 32 sec) 
Heartbeat CPU 0 instructions: 324000001 cycles: 955393680 heartbeat IPC: 0.350425 cumulative IPC: 0.338277 (Simulation time: 0 hr 24 min 36 sec) 
Heartbeat CPU 0 instructions: 325000002 cycles: 958335921 heartbeat IPC: 0.339877 cumulative IPC: 0.338282 (Simulation time: 0 hr 24 min 41 sec) 
Heartbeat CPU 0 instructions: 326000003 cycles: 961267268 heartbeat IPC: 0.34114 cumulative IPC: 0.33829 (Simulation time: 0 hr 24 min 46 sec) 
Heartbeat CPU 0 instructions: 327000000 cycles: 964277286 heartbeat IPC: 0.332223 cumulative IPC: 0.338271 (Simulation time: 0 hr 24 min 51 sec) 
Heartbeat CPU 0 instructions: 328000001 cycles: 967300215 heartbeat IPC: 0.330805 cumulative IPC: 0.338248 (Simulation time: 0 hr 24 min 56 sec) 
Heartbeat CPU 0 instructions: 329000002 cycles: 970449691 heartbeat IPC: 0.317513 cumulative IPC: 0.338181 (Simulation time: 0 hr 25 min 0 sec) 
Heartbeat CPU 0 instructions: 330000000 cycles: 972936937 heartbeat IPC: 0.40205 cumulative IPC: 0.338344 (Simulation time: 0 hr 25 min 4 sec) 
Heartbeat CPU 0 instructions: 331000000 cycles: 975416303 heartbeat IPC: 0.403329 cumulative IPC: 0.338509 (Simulation time: 0 hr 25 min 8 sec) 
Heartbeat CPU 0 instructions: 332000000 cycles: 978405603 heartbeat IPC: 0.334526 cumulative IPC: 0.338497 (Simulation time: 0 hr 25 min 12 sec) 
Heartbeat CPU 0 instructions: 333000001 cycles: 981412147 heartbeat IPC: 0.332608 cumulative IPC: 0.338479 (Simulation time: 0 hr 25 min 17 sec) 
Heartbeat CPU 0 instructions: 334000000 cycles: 984082293 heartbeat IPC: 0.374511 cumulative IPC: 0.338577 (Simulation time: 0 hr 25 min 21 sec) 
Heartbeat CPU 0 instructions: 335000000 cycles: 986680923 heartbeat IPC: 0.384818 cumulative IPC: 0.338699 (Simulation time: 0 hr 25 min 25 sec) 
Heartbeat CPU 0 instructions: 336000003 cycles: 989324336 heartbeat IPC: 0.3783 cumulative IPC: 0.338805 (Simulation time: 0 hr 25 min 29 sec) 
Heartbeat CPU 0 instructions: 337000000 cycles: 992131820 heartbeat IPC: 0.35619 cumulative IPC: 0.338854 (Simulation time: 0 hr 25 min 33 sec) 
Heartbeat CPU 0 instructions: 338000000 cycles: 995118721 heartbeat IPC: 0.334795 cumulative IPC: 0.338842 (Simulation time: 0 hr 25 min 37 sec) 
Heartbeat CPU 0 instructions: 339000002 cycles: 998056610 heartbeat IPC: 0.340381 cumulative IPC: 0.338846 (Simulation time: 0 hr 25 min 42 sec) 
Heartbeat CPU 0 instructions: 340000000 cycles: 1000994321 heartbeat IPC: 0.3404 cumulative IPC: 0.338851 (Simulation time: 0 hr 25 min 46 sec) 
Heartbeat CPU 0 instructions: 341000000 cycles: 1003969494 heartbeat IPC: 0.336115 cumulative IPC: 0.338843 (Simulation time: 0 hr 25 min 50 sec) 
Heartbeat CPU 0 instructions: 342000003 cycles: 1006989744 heartbeat IPC: 0.331099 cumulative IPC: 0.338819 (Simulation time: 0 hr 25 min 54 sec) 
Heartbeat CPU 0 instructions: 343000002 cycles: 1009765557 heartbeat IPC: 0.360254 cumulative IPC: 0.338878 (Simulation time: 0 hr 25 min 59 sec) 
Heartbeat CPU 0 instructions: 344000003 cycles: 1012825872 heartbeat IPC: 0.326764 cumulative IPC: 0.338842 (Simulation time: 0 hr 26 min 3 sec) 
Heartbeat CPU 0 instructions: 345000001 cycles: 1015703092 heartbeat IPC: 0.347557 cumulative IPC: 0.338866 (Simulation time: 0 hr 26 min 7 sec) 
Heartbeat CPU 0 instructions: 346000000 cycles: 1018725342 heartbeat IPC: 0.330879 cumulative IPC: 0.338843 (Simulation time: 0 hr 26 min 11 sec) 
Heartbeat CPU 0 instructions: 347000000 cycles: 1021680393 heartbeat IPC: 0.338404 cumulative IPC: 0.338841 (Simulation time: 0 hr 26 min 16 sec) 
Heartbeat CPU 0 instructions: 348000002 cycles: 1024604629 heartbeat IPC: 0.34197 cumulative IPC: 0.33885 (Simulation time: 0 hr 26 min 20 sec) 
Heartbeat CPU 0 instructions: 349000000 cycles: 1027671236 heartbeat IPC: 0.326093 cumulative IPC: 0.338812 (Simulation time: 0 hr 26 min 24 sec) 
Heartbeat CPU 0 instructions: 350000001 cycles: 1030645119 heartbeat IPC: 0.336261 cumulative IPC: 0.338805 (Simulation time: 0 hr 26 min 28 sec) 
Heartbeat CPU 0 instructions: 351000003 cycles: 1033411019 heartbeat IPC: 0.361547 cumulative IPC: 0.338866 (Simulation time: 0 hr 26 min 32 sec) 
Heartbeat CPU 0 instructions: 352000000 cycles: 1036384910 heartbeat IPC: 0.336259 cumulative IPC: 0.338858 (Simulation time: 0 hr 26 min 36 sec) 
Heartbeat CPU 0 instructions: 353000000 cycles: 1039302766 heartbeat IPC: 0.342717 cumulative IPC: 0.338869 (Simulation time: 0 hr 26 min 40 sec) 
Heartbeat CPU 0 instructions: 354000002 cycles: 1042240706 heartbeat IPC: 0.340375 cumulative IPC: 0.338873 (Simulation time: 0 hr 26 min 44 sec) 
Heartbeat CPU 0 instructions: 355000000 cycles: 1045114563 heartbeat IPC: 0.347964 cumulative IPC: 0.338898 (Simulation time: 0 hr 26 min 48 sec) 
Heartbeat CPU 0 instructions: 356000001 cycles: 1048261249 heartbeat IPC: 0.317795 cumulative IPC: 0.338835 (Simulation time: 0 hr 26 min 53 sec) 
Heartbeat CPU 0 instructions: 357000002 cycles: 1051149267 heartbeat IPC: 0.346259 cumulative IPC: 0.338855 (Simulation time: 0 hr 26 min 57 sec) 
Heartbeat CPU 0 instructions: 358000002 cycles: 1054049703 heartbeat IPC: 0.344776 cumulative IPC: 0.338872 (Simulation time: 0 hr 27 min 4 sec) 
Heartbeat CPU 0 instructions: 359000000 cycles: 1056989411 heartbeat IPC: 0.340169 cumulative IPC: 0.338875 (Simulation time: 0 hr 27 min 12 sec) 
Heartbeat CPU 0 instructions: 360000001 cycles: 1059961324 heartbeat IPC: 0.336484 cumulative IPC: 0.338869 (Simulation time: 0 hr 27 min 19 sec) 
Heartbeat CPU 0 instructions: 361000001 cycles: 1062891197 heartbeat IPC: 0.341312 cumulative IPC: 0.338875 (Simulation time: 0 hr 27 min 27 sec) 
Heartbeat CPU 0 instructions: 362000000 cycles: 1065897699 heartbeat IPC: 0.332612 cumulative IPC: 0.338858 (Simulation time: 0 hr 27 min 34 sec) 
Heartbeat CPU 0 instructions: 363000000 cycles: 1068929967 heartbeat IPC: 0.329786 cumulative IPC: 0.338832 (Simulation time: 0 hr 27 min 41 sec) 
Heartbeat CPU 0 instructions: 364000000 cycles: 1071814277 heartbeat IPC: 0.346703 cumulative IPC: 0.338853 (Simulation time: 0 hr 27 min 49 sec) 
Heartbeat CPU 0 instructions: 365000000 cycles: 1074689035 heartbeat IPC: 0.347855 cumulative IPC: 0.338877 (Simulation time: 0 hr 27 min 56 sec) 
Heartbeat CPU 0 instructions: 366000003 cycles: 1077651814 heartbeat IPC: 0.337522 cumulative IPC: 0.338874 (Simulation time: 0 hr 28 min 3 sec) 
Heartbeat CPU 0 instructions: 367000000 cycles: 1080597350 heartbeat IPC: 0.339496 cumulative IPC: 0.338875 (Simulation time: 0 hr 28 min 11 sec) 
Heartbeat CPU 0 instructions: 368000001 cycles: 1083628661 heartbeat IPC: 0.329891 cumulative IPC: 0.33885 (Simulation time: 0 hr 28 min 18 sec) 
Heartbeat CPU 0 instructions: 369000000 cycles: 1086492304 heartbeat IPC: 0.349205 cumulative IPC: 0.338877 (Simulation time: 0 hr 28 min 25 sec) 
Heartbeat CPU 0 instructions: 370000003 cycles: 1089380899 heartbeat IPC: 0.34619 cumulative IPC: 0.338897 (Simulation time: 0 hr 28 min 29 sec) 
Heartbeat CPU 0 instructions: 371000002 cycles: 1092343222 heartbeat IPC: 0.337573 cumulative IPC: 0.338893 (Simulation time: 0 hr 28 min 34 sec) 
Heartbeat CPU 0 instructions: 372000001 cycles: 1095209678 heartbeat IPC: 0.348862 cumulative IPC: 0.338919 (Simulation time: 0 hr 28 min 38 sec) 
Heartbeat CPU 0 instructions: 373000003 cycles: 1098185325 heartbeat IPC: 0.336062 cumulative IPC: 0.338912 (Simulation time: 0 hr 28 min 42 sec) 
Heartbeat CPU 0 instructions: 374000000 cycles: 1101103176 heartbeat IPC: 0.342717 cumulative IPC: 0.338922 (Simulation time: 0 hr 28 min 46 sec) 
Heartbeat CPU 0 instructions: 375000000 cycles: 1104161774 heartbeat IPC: 0.326947 cumulative IPC: 0.338888 (Simulation time: 0 hr 28 min 50 sec) 
Heartbeat CPU 0 instructions: 376000000 cycles: 1106975027 heartbeat IPC: 0.35546 cumulative IPC: 0.338931 (Simulation time: 0 hr 28 min 54 sec) 
Heartbeat CPU 0 instructions: 377000001 cycles: 1109884630 heartbeat IPC: 0.34369 cumulative IPC: 0.338943 (Simulation time: 0 hr 28 min 58 sec) 
Heartbeat CPU 0 instructions: 378000003 cycles: 1112856424 heartbeat IPC: 0.336498 cumulative IPC: 0.338937 (Simulation time: 0 hr 29 min 2 sec) 
Heartbeat CPU 0 instructions: 379000002 cycles: 1115798042 heartbeat IPC: 0.339949 cumulative IPC: 0.338939 (Simulation time: 0 hr 29 min 6 sec) 
Heartbeat CPU 0 instructions: 380000000 cycles: 1118729326 heartbeat IPC: 0.341147 cumulative IPC: 0.338945 (Simulation time: 0 hr 29 min 10 sec) 
Heartbeat CPU 0 instructions: 381000001 cycles: 1121663477 heartbeat IPC: 0.340814 cumulative IPC: 0.33895 (Simulation time: 0 hr 29 min 14 sec) 
Heartbeat CPU 0 instructions: 382000003 cycles: 1124637655 heartbeat IPC: 0.336228 cumulative IPC: 0.338943 (Simulation time: 0 hr 29 min 18 sec) 
Heartbeat CPU 0 instructions: 383000000 cycles: 1127537082 heartbeat IPC: 0.344895 cumulative IPC: 0.338958 (Simulation time: 0 hr 29 min 22 sec) 
Heartbeat CPU 0 instructions: 384000001 cycles: 1130418938 heartbeat IPC: 0.346999 cumulative IPC: 0.338979 (Simulation time: 0 hr 29 min 27 sec) 
Heartbeat CPU 0 instructions: 385000000 cycles: 1133450012 heartbeat IPC: 0.329916 cumulative IPC: 0.338954 (Simulation time: 0 hr 29 min 31 sec) 
Heartbeat CPU 0 instructions: 386000000 cycles: 1136447799 heartbeat IPC: 0.333579 cumulative IPC: 0.33894 (Simulation time: 0 hr 29 min 35 sec) 
Heartbeat CPU 0 instructions: 387000000 cycles: 1139257679 heartbeat IPC: 0.355887 cumulative IPC: 0.338982 (Simulation time: 0 hr 29 min 39 sec) 
Heartbeat CPU 0 instructions: 388000000 cycles: 1142356494 heartbeat IPC: 0.322704 cumulative IPC: 0.338938 (Simulation time: 0 hr 29 min 43 sec) 
Heartbeat CPU 0 instructions: 389000000 cycles: 1145136220 heartbeat IPC: 0.359748 cumulative IPC: 0.338988 (Simulation time: 0 hr 29 min 47 sec) 
Heartbeat CPU 0 instructions: 390000000 cycles: 1148061619 heartbeat IPC: 0.341834 cumulative IPC: 0.338996 (Simulation time: 0 hr 29 min 53 sec) 
Heartbeat CPU 0 instructions: 391000003 cycles: 1151032236 heartbeat IPC: 0.336631 cumulative IPC: 0.338989 (Simulation time: 0 hr 30 min 0 sec) 
Heartbeat CPU 0 instructions: 392000002 cycles: 1154078568 heartbeat IPC: 0.328263 cumulative IPC: 0.338961 (Simulation time: 0 hr 30 min 7 sec) 
Heartbeat CPU 0 instructions: 393000000 cycles: 1156866035 heartbeat IPC: 0.358748 cumulative IPC: 0.339009 (Simulation time: 0 hr 30 min 14 sec) 
Heartbeat CPU 0 instructions: 394000000 cycles: 1159787075 heartbeat IPC: 0.342344 cumulative IPC: 0.339017 (Simulation time: 0 hr 30 min 21 sec) 
Heartbeat CPU 0 instructions: 395000002 cycles: 1162643768 heartbeat IPC: 0.350056 cumulative IPC: 0.339044 (Simulation time: 0 hr 30 min 28 sec) 
Heartbeat CPU 0 instructions: 396000000 cycles: 1165578413 heartbeat IPC: 0.340756 cumulative IPC: 0.339049 (Simulation time: 0 hr 30 min 35 sec) 
Heartbeat CPU 0 instructions: 397000000 cycles: 1168543789 heartbeat IPC: 0.337225 cumulative IPC: 0.339044 (Simulation time: 0 hr 30 min 40 sec) 
Heartbeat CPU 0 instructions: 398000001 cycles: 1171517610 heartbeat IPC: 0.336268 cumulative IPC: 0.339037 (Simulation time: 0 hr 30 min 44 sec) 
Heartbeat CPU 0 instructions: 399000001 cycles: 1174430598 heartbeat IPC: 0.34329 cumulative IPC: 0.339048 (Simulation time: 0 hr 30 min 48 sec) 
Heartbeat CPU 0 instructions: 400000001 cycles: 1177365748 heartbeat IPC: 0.340698 cumulative IPC: 0.339052 (Simulation time: 0 hr 30 min 52 sec) 
Heartbeat CPU 0 instructions: 401000002 cycles: 1180371616 heartbeat IPC: 0.332683 cumulative IPC: 0.339035 (Simulation time: 0 hr 30 min 56 sec) 
Heartbeat CPU 0 instructions: 402000002 cycles: 1183526341 heartbeat IPC: 0.316985 cumulative IPC: 0.338977 (Simulation time: 0 hr 31 min 0 sec) 
Heartbeat CPU 0 instructions: 403000000 cycles: 1186369608 heartbeat IPC: 0.351707 cumulative IPC: 0.339007 (Simulation time: 0 hr 31 min 4 sec) 
Heartbeat CPU 0 instructions: 404000001 cycles: 1189386464 heartbeat IPC: 0.331471 cumulative IPC: 0.338988 (Simulation time: 0 hr 31 min 9 sec) 
Heartbeat CPU 0 instructions: 405000000 cycles: 1192367235 heartbeat IPC: 0.335483 cumulative IPC: 0.338979 (Simulation time: 0 hr 31 min 13 sec) 
Heartbeat CPU 0 instructions: 406000001 cycles: 1195300182 heartbeat IPC: 0.340954 cumulative IPC: 0.338984 (Simulation time: 0 hr 31 min 17 sec) 
Heartbeat CPU 0 instructions: 407000000 cycles: 1198284013 heartbeat IPC: 0.335139 cumulative IPC: 0.338975 (Simulation time: 0 hr 31 min 21 sec) 
Heartbeat CPU 0 instructions: 408000000 cycles: 1201505078 heartbeat IPC: 0.310456 cumulative IPC: 0.338898 (Simulation time: 0 hr 31 min 25 sec) 
Heartbeat CPU 0 instructions: 409000000 cycles: 1204122296 heartbeat IPC: 0.382085 cumulative IPC: 0.338992 (Simulation time: 0 hr 31 min 29 sec) 
Heartbeat CPU 0 instructions: 410000001 cycles: 1206543630 heartbeat IPC: 0.412996 cumulative IPC: 0.339141 (Simulation time: 0 hr 31 min 33 sec) 
Heartbeat CPU 0 instructions: 411000000 cycles: 1209550403 heartbeat IPC: 0.332582 cumulative IPC: 0.339124 (Simulation time: 0 hr 31 min 37 sec) 
Heartbeat CPU 0 instructions: 412000002 cycles: 1212932963 heartbeat IPC: 0.295635 cumulative IPC: 0.339003 (Simulation time: 0 hr 31 min 42 sec) 
Heartbeat CPU 0 instructions: 413000002 cycles: 1215607731 heartbeat IPC: 0.373864 cumulative IPC: 0.33908 (Simulation time: 0 hr 31 min 46 sec) 
Heartbeat CPU 0 instructions: 414000002 cycles: 1218559436 heartbeat IPC: 0.338787 cumulative IPC: 0.339079 (Simulation time: 0 hr 31 min 50 sec) 
Heartbeat CPU 0 instructions: 415000002 cycles: 1221279460 heartbeat IPC: 0.367644 cumulative IPC: 0.339143 (Simulation time: 0 hr 31 min 55 sec) 
Heartbeat CPU 0 instructions: 416000000 cycles: 1224204558 heartbeat IPC: 0.341868 cumulative IPC: 0.339149 (Simulation time: 0 hr 31 min 59 sec) 
Heartbeat CPU 0 instructions: 417000002 cycles: 1227170509 heartbeat IPC: 0.337161 cumulative IPC: 0.339144 (Simulation time: 0 hr 32 min 3 sec) 
Heartbeat CPU 0 instructions: 418000000 cycles: 1230105000 heartbeat IPC: 0.340774 cumulative IPC: 0.339148 (Simulation time: 0 hr 32 min 7 sec) 
Heartbeat CPU 0 instructions: 419000000 cycles: 1233108152 heartbeat IPC: 0.332983 cumulative IPC: 0.339133 (Simulation time: 0 hr 32 min 12 sec) 
Heartbeat CPU 0 instructions: 420000002 cycles: 1235976493 heartbeat IPC: 0.348634 cumulative IPC: 0.339155 (Simulation time: 0 hr 32 min 16 sec) 
Heartbeat CPU 0 instructions: 421000001 cycles: 1238970244 heartbeat IPC: 0.334029 cumulative IPC: 0.339143 (Simulation time: 0 hr 32 min 20 sec) 
Heartbeat CPU 0 instructions: 422000000 cycles: 1241944324 heartbeat IPC: 0.336238 cumulative IPC: 0.339136 (Simulation time: 0 hr 32 min 24 sec) 
Heartbeat CPU 0 instructions: 423000003 cycles: 1244924922 heartbeat IPC: 0.335504 cumulative IPC: 0.339127 (Simulation time: 0 hr 32 min 29 sec) 
Heartbeat CPU 0 instructions: 424000001 cycles: 1247768055 heartbeat IPC: 0.351724 cumulative IPC: 0.339156 (Simulation time: 0 hr 32 min 33 sec) 
Heartbeat CPU 0 instructions: 425000001 cycles: 1250753078 heartbeat IPC: 0.335006 cumulative IPC: 0.339146 (Simulation time: 0 hr 32 min 37 sec) 
Heartbeat CPU 0 instructions: 426000000 cycles: 1253670792 heartbeat IPC: 0.342734 cumulative IPC: 0.339154 (Simulation time: 0 hr 32 min 41 sec) 
Heartbeat CPU 0 instructions: 427000000 cycles: 1256822346 heartbeat IPC: 0.317304 cumulative IPC: 0.339099 (Simulation time: 0 hr 32 min 45 sec) 
Heartbeat CPU 0 instructions: 428000001 cycles: 1259678367 heartbeat IPC: 0.350138 cumulative IPC: 0.339125 (Simulation time: 0 hr 32 min 49 sec) 
Heartbeat CPU 0 instructions: 429000000 cycles: 1262849803 heartbeat IPC: 0.315314 cumulative IPC: 0.339065 (Simulation time: 0 hr 32 min 54 sec) 
Heartbeat CPU 0 instructions: 430000000 cycles: 1265563569 heartbeat IPC: 0.368492 cumulative IPC: 0.339128 (Simulation time: 0 hr 32 min 58 sec) 
Heartbeat CPU 0 instructions: 431000000 cycles: 1268608032 heartbeat IPC: 0.328465 cumulative IPC: 0.339102 (Simulation time: 0 hr 33 min 2 sec) 
Heartbeat CPU 0 instructions: 432000001 cycles: 1271381371 heartbeat IPC: 0.360577 cumulative IPC: 0.339149 (Simulation time: 0 hr 33 min 6 sec) 
Heartbeat CPU 0 instructions: 433000002 cycles: 1274327528 heartbeat IPC: 0.339426 cumulative IPC: 0.33915 (Simulation time: 0 hr 33 min 10 sec) 
Heartbeat CPU 0 instructions: 434000000 cycles: 1277442894 heartbeat IPC: 0.320989 cumulative IPC: 0.339105 (Simulation time: 0 hr 33 min 15 sec) 
Heartbeat CPU 0 instructions: 435000000 cycles: 1280437834 heartbeat IPC: 0.333897 cumulative IPC: 0.339093 (Simulation time: 0 hr 33 min 19 sec) 
Heartbeat CPU 0 instructions: 436000003 cycles: 1283326191 heartbeat IPC: 0.346219 cumulative IPC: 0.339109 (Simulation time: 0 hr 33 min 23 sec) 
Heartbeat CPU 0 instructions: 437000003 cycles: 1285983483 heartbeat IPC: 0.376323 cumulative IPC: 0.339186 (Simulation time: 0 hr 33 min 27 sec) 
Heartbeat CPU 0 instructions: 438000001 cycles: 1288980758 heartbeat IPC: 0.333636 cumulative IPC: 0.339173 (Simulation time: 0 hr 33 min 31 sec) 
Heartbeat CPU 0 instructions: 439000003 cycles: 1292207780 heartbeat IPC: 0.309884 cumulative IPC: 0.3391 (Simulation time: 0 hr 33 min 36 sec) 
Heartbeat CPU 0 instructions: 440000000 cycles: 1295210095 heartbeat IPC: 0.333075 cumulative IPC: 0.339086 (Simulation time: 0 hr 33 min 40 sec) 
Heartbeat CPU 0 instructions: 441000000 cycles: 1298183764 heartbeat IPC: 0.336285 cumulative IPC: 0.33908 (Simulation time: 0 hr 33 min 45 sec) 
Heartbeat CPU 0 instructions: 442000003 cycles: 1301172426 heartbeat IPC: 0.334599 cumulative IPC: 0.339069 (Simulation time: 0 hr 33 min 49 sec) 
Heartbeat CPU 0 instructions: 443000002 cycles: 1304137625 heartbeat IPC: 0.337245 cumulative IPC: 0.339065 (Simulation time: 0 hr 33 min 53 sec) 
Heartbeat CPU 0 instructions: 444000001 cycles: 1307072967 heartbeat IPC: 0.340675 cumulative IPC: 0.339069 (Simulation time: 0 hr 33 min 57 sec) 
Heartbeat CPU 0 instructions: 445000001 cycles: 1309890943 heartbeat IPC: 0.354865 cumulative IPC: 0.339103 (Simulation time: 0 hr 34 min 2 sec) 
Heartbeat CPU 0 instructions: 446000000 cycles: 1312865768 heartbeat IPC: 0.336154 cumulative IPC: 0.339096 (Simulation time: 0 hr 34 min 6 sec) 
Heartbeat CPU 0 instructions: 447000001 cycles: 1315897771 heartbeat IPC: 0.329815 cumulative IPC: 0.339075 (Simulation time: 0 hr 34 min 10 sec) 
Heartbeat CPU 0 instructions: 448000001 cycles: 1318840791 heartbeat IPC: 0.339787 cumulative IPC: 0.339076 (Simulation time: 0 hr 34 min 14 sec) 
Heartbeat CPU 0 instructions: 449000001 cycles: 1321747172 heartbeat IPC: 0.344071 cumulative IPC: 0.339087 (Simulation time: 0 hr 34 min 18 sec) 
Heartbeat CPU 0 instructions: 450000000 cycles: 1324668413 heartbeat IPC: 0.34232 cumulative IPC: 0.339095 (Simulation time: 0 hr 34 min 23 sec) 

Warmup complete CPU 0 instructions: 450000001 cycles: 1324668414 (Simulation time: 0 hr 34 min 23 sec) 

Heartbeat CPU 0 instructions: 451000000 cycles: 1327316924 heartbeat IPC: 0.377571 cumulative IPC: 0.37757 (Simulation time: 0 hr 34 min 27 sec) 
Heartbeat CPU 0 instructions: 452000002 cycles: 1330127264 heartbeat IPC: 0.35583 cumulative IPC: 0.366378 (Simulation time: 0 hr 34 min 31 sec) 
Heartbeat CPU 0 instructions: 453000002 cycles: 1332801780 heartbeat IPC: 0.373899 cumulative IPC: 0.368851 (Simulation time: 0 hr 34 min 36 sec) 
Heartbeat CPU 0 instructions: 454000003 cycles: 1335481465 heartbeat IPC: 0.373179 cumulative IPC: 0.369924 (Simulation time: 0 hr 34 min 40 sec) 
Heartbeat CPU 0 instructions: 455000001 cycles: 1338159188 heartbeat IPC: 0.373451 cumulative IPC: 0.370624 (Simulation time: 0 hr 34 min 44 sec) 
Heartbeat CPU 0 instructions: 456000001 cycles: 1340776168 heartbeat IPC: 0.38212 cumulative IPC: 0.372491 (Simulation time: 0 hr 34 min 49 sec) 
Heartbeat CPU 0 instructions: 457000001 cycles: 1343420323 heartbeat IPC: 0.378193 cumulative IPC: 0.373295 (Simulation time: 0 hr 34 min 53 sec) 
Heartbeat CPU 0 instructions: 458000000 cycles: 1346110474 heartbeat IPC: 0.371726 cumulative IPC: 0.373098 (Simulation time: 0 hr 34 min 57 sec) 
Heartbeat CPU 0 instructions: 459000001 cycles: 1348902955 heartbeat IPC: 0.358105 cumulative IPC: 0.371371 (Simulation time: 0 hr 35 min 1 sec) 
Heartbeat CPU 0 instructions: 460000000 cycles: 1351660835 heartbeat IPC: 0.362597 cumulative IPC: 0.370474 (Simulation time: 0 hr 35 min 6 sec) 
Heartbeat CPU 0 instructions: 461000000 cycles: 1354332588 heartbeat IPC: 0.374286 cumulative IPC: 0.370818 (Simulation time: 0 hr 35 min 10 sec) 
Heartbeat CPU 0 instructions: 462000000 cycles: 1357281656 heartbeat IPC: 0.33909 cumulative IPC: 0.367949 (Simulation time: 0 hr 35 min 15 sec) 
Heartbeat CPU 0 instructions: 463000000 cycles: 1359727714 heartbeat IPC: 0.408821 cumulative IPC: 0.3708 (Simulation time: 0 hr 35 min 19 sec) 
Heartbeat CPU 0 instructions: 464000000 cycles: 1362500824 heartbeat IPC: 0.360606 cumulative IPC: 0.370053 (Simulation time: 0 hr 35 min 23 sec) 
Heartbeat CPU 0 instructions: 465000002 cycles: 1365099626 heartbeat IPC: 0.384793 cumulative IPC: 0.371001 (Simulation time: 0 hr 35 min 27 sec) 
Heartbeat CPU 0 instructions: 466000000 cycles: 1367724648 heartbeat IPC: 0.380948 cumulative IPC: 0.371607 (Simulation time: 0 hr 35 min 32 sec) 
Heartbeat CPU 0 instructions: 467000000 cycles: 1370387128 heartbeat IPC: 0.37559 cumulative IPC: 0.371839 (Simulation time: 0 hr 35 min 36 sec) 
Heartbeat CPU 0 instructions: 468000003 cycles: 1373075429 heartbeat IPC: 0.371983 cumulative IPC: 0.371847 (Simulation time: 0 hr 35 min 40 sec) 
Heartbeat CPU 0 instructions: 469000003 cycles: 1375843332 heartbeat IPC: 0.361284 cumulative IPC: 0.371276 (Simulation time: 0 hr 35 min 44 sec) 
Heartbeat CPU 0 instructions: 470000001 cycles: 1378436749 heartbeat IPC: 0.385591 cumulative IPC: 0.371966 (Simulation time: 0 hr 35 min 49 sec) 
Heartbeat CPU 0 instructions: 471000002 cycles: 1381006676 heartbeat IPC: 0.389116 cumulative IPC: 0.372748 (Simulation time: 0 hr 35 min 53 sec) 
Heartbeat CPU 0 instructions: 472000000 cycles: 1383726577 heartbeat IPC: 0.36766 cumulative IPC: 0.372514 (Simulation time: 0 hr 35 min 57 sec) 
Heartbeat CPU 0 instructions: 473000000 cycles: 1386415515 heartbeat IPC: 0.371894 cumulative IPC: 0.372487 (Simulation time: 0 hr 36 min 2 sec) 
Heartbeat CPU 0 instructions: 474000001 cycles: 1389267589 heartbeat IPC: 0.350622 cumulative IPC: 0.371522 (Simulation time: 0 hr 36 min 9 sec) 
Heartbeat CPU 0 instructions: 475000001 cycles: 1391775416 heartbeat IPC: 0.398752 cumulative IPC: 0.372539 (Simulation time: 0 hr 36 min 15 sec) 
Heartbeat CPU 0 instructions: 476000000 cycles: 1394558334 heartbeat IPC: 0.359335 cumulative IPC: 0.372014 (Simulation time: 0 hr 36 min 23 sec) 
Heartbeat CPU 0 instructions: 477000000 cycles: 1397104289 heartbeat IPC: 0.39278 cumulative IPC: 0.372743 (Simulation time: 0 hr 36 min 29 sec) 
Heartbeat CPU 0 instructions: 478000001 cycles: 1399791212 heartbeat IPC: 0.372173 cumulative IPC: 0.372723 (Simulation time: 0 hr 36 min 36 sec) 
Heartbeat CPU 0 instructions: 479000000 cycles: 1402483006 heartbeat IPC: 0.371499 cumulative IPC: 0.372681 (Simulation time: 0 hr 36 min 43 sec) 
Heartbeat CPU 0 instructions: 480000003 cycles: 1405232547 heartbeat IPC: 0.363698 cumulative IPC: 0.372374 (Simulation time: 0 hr 36 min 50 sec) 
Heartbeat CPU 0 instructions: 481000000 cycles: 1408039875 heartbeat IPC: 0.35621 cumulative IPC: 0.37183 (Simulation time: 0 hr 36 min 57 sec) 
Heartbeat CPU 0 instructions: 482000003 cycles: 1410762815 heartbeat IPC: 0.367251 cumulative IPC: 0.371685 (Simulation time: 0 hr 37 min 4 sec) 
Heartbeat CPU 0 instructions: 483000000 cycles: 1413636073 heartbeat IPC: 0.348036 cumulative IPC: 0.370921 (Simulation time: 0 hr 37 min 12 sec) 
Heartbeat CPU 0 instructions: 484000000 cycles: 1416278160 heartbeat IPC: 0.378489 cumulative IPC: 0.37114 (Simulation time: 0 hr 37 min 19 sec) 
Heartbeat CPU 0 instructions: 485000000 cycles: 1419184729 heartbeat IPC: 0.344048 cumulative IPC: 0.370306 (Simulation time: 0 hr 37 min 26 sec) 
Heartbeat CPU 0 instructions: 486000000 cycles: 1421933357 heartbeat IPC: 0.363818 cumulative IPC: 0.370123 (Simulation time: 0 hr 37 min 33 sec) 
Heartbeat CPU 0 instructions: 487000000 cycles: 1424480445 heartbeat IPC: 0.392605 cumulative IPC: 0.370697 (Simulation time: 0 hr 37 min 39 sec) 
Heartbeat CPU 0 instructions: 488000000 cycles: 1427167471 heartbeat IPC: 0.372159 cumulative IPC: 0.370735 (Simulation time: 0 hr 37 min 44 sec) 
Heartbeat CPU 0 instructions: 489000003 cycles: 1429989661 heartbeat IPC: 0.354336 cumulative IPC: 0.370296 (Simulation time: 0 hr 37 min 48 sec) 
Heartbeat CPU 0 instructions: 490000002 cycles: 1432789314 heartbeat IPC: 0.357187 cumulative IPC: 0.369956 (Simulation time: 0 hr 37 min 52 sec) 
Heartbeat CPU 0 instructions: 491000002 cycles: 1435247135 heartbeat IPC: 0.406864 cumulative IPC: 0.370777 (Simulation time: 0 hr 37 min 56 sec) 
Heartbeat CPU 0 instructions: 492000002 cycles: 1437930595 heartbeat IPC: 0.372653 cumulative IPC: 0.370821 (Simulation time: 0 hr 38 min 1 sec) 
Heartbeat CPU 0 instructions: 493000003 cycles: 1440585916 heartbeat IPC: 0.376603 cumulative IPC: 0.370954 (Simulation time: 0 hr 38 min 5 sec) 
Heartbeat CPU 0 instructions: 494000003 cycles: 1443391483 heartbeat IPC: 0.356434 cumulative IPC: 0.37061 (Simulation time: 0 hr 38 min 9 sec) 
Heartbeat CPU 0 instructions: 495000000 cycles: 1446075385 heartbeat IPC: 0.372591 cumulative IPC: 0.370654 (Simulation time: 0 hr 38 min 13 sec) 
Heartbeat CPU 0 instructions: 496000000 cycles: 1448661896 heartbeat IPC: 0.386621 cumulative IPC: 0.370987 (Simulation time: 0 hr 38 min 17 sec) 
Heartbeat CPU 0 instructions: 497000000 cycles: 1451281021 heartbeat IPC: 0.381807 cumulative IPC: 0.371211 (Simulation time: 0 hr 38 min 22 sec) 
Heartbeat CPU 0 instructions: 498000002 cycles: 1454077060 heartbeat IPC: 0.35765 cumulative IPC: 0.370918 (Simulation time: 0 hr 38 min 26 sec) 
Heartbeat CPU 0 instructions: 499000003 cycles: 1456703703 heartbeat IPC: 0.380714 cumulative IPC: 0.371113 (Simulation time: 0 hr 38 min 30 sec) 
Heartbeat CPU 0 instructions: 500000001 cycles: 1459449422 heartbeat IPC: 0.364203 cumulative IPC: 0.370972 (Simulation time: 0 hr 38 min 34 sec) 
Heartbeat CPU 0 instructions: 501000001 cycles: 1462285779 heartbeat IPC: 0.352565 cumulative IPC: 0.370593 (Simulation time: 0 hr 38 min 39 sec) 
Heartbeat CPU 0 instructions: 502000003 cycles: 1465048148 heartbeat IPC: 0.362009 cumulative IPC: 0.370424 (Simulation time: 0 hr 38 min 43 sec) 
Heartbeat CPU 0 instructions: 503000000 cycles: 1467660640 heartbeat IPC: 0.382775 cumulative IPC: 0.37065 (Simulation time: 0 hr 38 min 47 sec) 
Heartbeat CPU 0 instructions: 504000001 cycles: 1470263208 heartbeat IPC: 0.384236 cumulative IPC: 0.370892 (Simulation time: 0 hr 38 min 51 sec) 
Heartbeat CPU 0 instructions: 505000000 cycles: 1472996482 heartbeat IPC: 0.365861 cumulative IPC: 0.3708 (Simulation time: 0 hr 38 min 56 sec) 
Heartbeat CPU 0 instructions: 506000000 cycles: 1475847828 heartbeat IPC: 0.350712 cumulative IPC: 0.370421 (Simulation time: 0 hr 39 min 0 sec) 
Heartbeat CPU 0 instructions: 507000000 cycles: 1478595160 heartbeat IPC: 0.36399 cumulative IPC: 0.370306 (Simulation time: 0 hr 39 min 4 sec) 
Heartbeat CPU 0 instructions: 508000000 cycles: 1481307800 heartbeat IPC: 0.368645 cumulative IPC: 0.370277 (Simulation time: 0 hr 39 min 8 sec) 
Heartbeat CPU 0 instructions: 509000000 cycles: 1483963497 heartbeat IPC: 0.376549 cumulative IPC: 0.370382 (Simulation time: 0 hr 39 min 12 sec) 
Heartbeat CPU 0 instructions: 510000001 cycles: 1486625105 heartbeat IPC: 0.375713 cumulative IPC: 0.370469 (Simulation time: 0 hr 39 min 17 sec) 
Heartbeat CPU 0 instructions: 511000002 cycles: 1489312168 heartbeat IPC: 0.372154 cumulative IPC: 0.370497 (Simulation time: 0 hr 39 min 21 sec) 
Heartbeat CPU 0 instructions: 512000001 cycles: 1492106821 heartbeat IPC: 0.357826 cumulative IPC: 0.370285 (Simulation time: 0 hr 39 min 25 sec) 
Heartbeat CPU 0 instructions: 513000003 cycles: 1494904953 heartbeat IPC: 0.357382 cumulative IPC: 0.370073 (Simulation time: 0 hr 39 min 30 sec) 
Heartbeat CPU 0 instructions: 514000002 cycles: 1497567702 heartbeat IPC: 0.375551 cumulative IPC: 0.370158 (Simulation time: 0 hr 39 min 34 sec) 
Heartbeat CPU 0 instructions: 515000003 cycles: 1500142220 heartbeat IPC: 0.388423 cumulative IPC: 0.370426 (Simulation time: 0 hr 39 min 38 sec) 
Heartbeat CPU 0 instructions: 516000002 cycles: 1502735796 heartbeat IPC: 0.385568 cumulative IPC: 0.370646 (Simulation time: 0 hr 39 min 42 sec) 
Heartbeat CPU 0 instructions: 517000000 cycles: 1505370931 heartbeat IPC: 0.379486 cumulative IPC: 0.370775 (Simulation time: 0 hr 39 min 47 sec) 
Heartbeat CPU 0 instructions: 518000000 cycles: 1508074417 heartbeat IPC: 0.369893 cumulative IPC: 0.370762 (Simulation time: 0 hr 39 min 51 sec) 
Heartbeat CPU 0 instructions: 519000002 cycles: 1510741233 heartbeat IPC: 0.37498 cumulative IPC: 0.370823 (Simulation time: 0 hr 39 min 55 sec) 
Heartbeat CPU 0 instructions: 520000000 cycles: 1513567812 heartbeat IPC: 0.353784 cumulative IPC: 0.370568 (Simulation time: 0 hr 39 min 59 sec) 
Heartbeat CPU 0 instructions: 521000000 cycles: 1516224749 heartbeat IPC: 0.376373 cumulative IPC: 0.370648 (Simulation time: 0 hr 40 min 4 sec) 
Heartbeat CPU 0 instructions: 522000000 cycles: 1518964571 heartbeat IPC: 0.364987 cumulative IPC: 0.370568 (Simulation time: 0 hr 40 min 8 sec) 
Heartbeat CPU 0 instructions: 523000002 cycles: 1521510121 heartbeat IPC: 0.392843 cumulative IPC: 0.370856 (Simulation time: 0 hr 40 min 12 sec) 
Heartbeat CPU 0 instructions: 524000001 cycles: 1523993798 heartbeat IPC: 0.402628 cumulative IPC: 0.371252 (Simulation time: 0 hr 40 min 16 sec) 
Heartbeat CPU 0 instructions: 525000001 cycles: 1526193549 heartbeat IPC: 0.454597 cumulative IPC: 0.372162 (Simulation time: 0 hr 40 min 21 sec) 
Heartbeat CPU 0 instructions: 526000001 cycles: 1528909915 heartbeat IPC: 0.368139 cumulative IPC: 0.372109 (Simulation time: 0 hr 40 min 25 sec) 
Heartbeat CPU 0 instructions: 527000002 cycles: 1531676725 heartbeat IPC: 0.361427 cumulative IPC: 0.371966 (Simulation time: 0 hr 40 min 29 sec) 
Heartbeat CPU 0 instructions: 528000000 cycles: 1534382939 heartbeat IPC: 0.369519 cumulative IPC: 0.371934 (Simulation time: 0 hr 40 min 33 sec) 
Heartbeat CPU 0 instructions: 529000002 cycles: 1537032352 heartbeat IPC: 0.377443 cumulative IPC: 0.372003 (Simulation time: 0 hr 40 min 37 sec) 
Heartbeat CPU 0 instructions: 530000000 cycles: 1539858507 heartbeat IPC: 0.353837 cumulative IPC: 0.371764 (Simulation time: 0 hr 40 min 42 sec) 
Heartbeat CPU 0 instructions: 531000000 cycles: 1542498207 heartbeat IPC: 0.378831 cumulative IPC: 0.37185 (Simulation time: 0 hr 40 min 49 sec) 
Heartbeat CPU 0 instructions: 532000000 cycles: 1545139282 heartbeat IPC: 0.378634 cumulative IPC: 0.371931 (Simulation time: 0 hr 40 min 56 sec) 
Heartbeat CPU 0 instructions: 533000003 cycles: 1547975694 heartbeat IPC: 0.352559 cumulative IPC: 0.371685 (Simulation time: 0 hr 41 min 4 sec) 
Heartbeat CPU 0 instructions: 534000002 cycles: 1550807721 heartbeat IPC: 0.353104 cumulative IPC: 0.371452 (Simulation time: 0 hr 41 min 11 sec) 
Heartbeat CPU 0 instructions: 535000002 cycles: 1553637202 heartbeat IPC: 0.353422 cumulative IPC: 0.37123 (Simulation time: 0 hr 41 min 19 sec) 
Heartbeat CPU 0 instructions: 536000001 cycles: 1556339234 heartbeat IPC: 0.370091 cumulative IPC: 0.371216 (Simulation time: 0 hr 41 min 27 sec) 
Heartbeat CPU 0 instructions: 537000002 cycles: 1559081425 heartbeat IPC: 0.364672 cumulative IPC: 0.37114 (Simulation time: 0 hr 41 min 34 sec) 
Heartbeat CPU 0 instructions: 538000000 cycles: 1561831282 heartbeat IPC: 0.363655 cumulative IPC: 0.371053 (Simulation time: 0 hr 41 min 42 sec) 
Heartbeat CPU 0 instructions: 539000000 cycles: 1564472689 heartbeat IPC: 0.378586 cumulative IPC: 0.371136 (Simulation time: 0 hr 41 min 49 sec) 
Heartbeat CPU 0 instructions: 540000000 cycles: 1567268216 heartbeat IPC: 0.357714 cumulative IPC: 0.370981 (Simulation time: 0 hr 41 min 57 sec) 
Heartbeat CPU 0 instructions: 541000000 cycles: 1569905919 heartbeat IPC: 0.379118 cumulative IPC: 0.371069 (Simulation time: 0 hr 42 min 4 sec) 
Heartbeat CPU 0 instructions: 542000000 cycles: 1572635332 heartbeat IPC: 0.366379 cumulative IPC: 0.371017 (Simulation time: 0 hr 42 min 12 sec) 
Heartbeat CPU 0 instructions: 543000000 cycles: 1575360714 heartbeat IPC: 0.366921 cumulative IPC: 0.370973 (Simulation time: 0 hr 42 min 19 sec) 
Heartbeat CPU 0 instructions: 544000002 cycles: 1577927678 heartbeat IPC: 0.389566 cumulative IPC: 0.371161 (Simulation time: 0 hr 42 min 27 sec) 
Heartbeat CPU 0 instructions: 545000000 cycles: 1580552927 heartbeat IPC: 0.380915 cumulative IPC: 0.371261 (Simulation time: 0 hr 42 min 34 sec) 
[...]
Heartbeat CPU 0 instructions: 835000002 cycles: 2352202150 heartbeat IPC: 0.373525 cumulative IPC: 0.374684 (Simulation time: 1 hr 20 min 11 sec) 
Heartbeat CPU 0 instructions: 836000000 cycles: 2354748289 heartbeat IPC: 0.392751 cumulative IPC: 0.374728 (Simulation time: 1 hr 20 min 19 sec) 
Heartbeat CPU 0 instructions: 837000001 cycles: 2357489464 heartbeat IPC: 0.364807 cumulative IPC: 0.374702 (Simulation time: 1 hr 20 min 26 sec) 
Heartbeat CPU 0 instructions: 838000003 cycles: 2359815563 heartbeat IPC: 0.429905 cumulative IPC: 0.374826 (Simulation time: 1 hr 20 min 34 sec) 
Heartbeat CPU 0 instructions: 839000001 cycles: 2362219397 heartbeat IPC: 0.416001 cumulative IPC: 0.374921 (Simulation time: 1 hr 20 min 41 sec) 
Heartbeat CPU 0 instructions: 840000001 cycles: 2364969087 heartbeat IPC: 0.363677 cumulative IPC: 0.374892 (Simulation time: 1 hr 20 min 49 sec) 
Heartbeat CPU 0 instructions: 841000001 cycles: 2367514700 heartbeat IPC: 0.392833 cumulative IPC: 0.374935 (Simulation time: 1 hr 20 min 57 sec) 
Heartbeat CPU 0 instructions: 842000001 cycles: 2370278530 heartbeat IPC: 0.361817 cumulative IPC: 0.374901 (Simulation time: 1 hr 21 min 4 sec) 
Heartbeat CPU 0 instructions: 843000001 cycles: 2372952036 heartbeat IPC: 0.374041 cumulative IPC: 0.374899 (Simulation time: 1 hr 21 min 12 sec) 
Heartbeat CPU 0 instructions: 844000000 cycles: 2375668193 heartbeat IPC: 0.368167 cumulative IPC: 0.374881 (Simulation time: 1 hr 21 min 20 sec) 
Heartbeat CPU 0 instructions: 845000002 cycles: 2378347628 heartbeat IPC: 0.373214 cumulative IPC: 0.374877 (Simulation time: 1 hr 21 min 27 sec) 
Heartbeat CPU 0 instructions: 846000000 cycles: 2380890585 heartbeat IPC: 0.393242 cumulative IPC: 0.374921 (Simulation time: 1 hr 21 min 35 sec) 
Heartbeat CPU 0 instructions: 847000000 cycles: 2383589580 heartbeat IPC: 0.370508 cumulative IPC: 0.37491 (Simulation time: 1 hr 21 min 43 sec) 
Heartbeat CPU 0 instructions: 848000001 cycles: 2386214132 heartbeat IPC: 0.381018 cumulative IPC: 0.374925 (Simulation time: 1 hr 21 min 50 sec) 
Heartbeat CPU 0 instructions: 849000002 cycles: 2388946384 heartbeat IPC: 0.365999 cumulative IPC: 0.374902 (Simulation time: 1 hr 21 min 58 sec) 
Heartbeat CPU 0 instructions: 850000003 cycles: 2391726923 heartbeat IPC: 0.359643 cumulative IPC: 0.374862 (Simulation time: 1 hr 22 min 6 sec) 
Heartbeat CPU 0 instructions: 851000003 cycles: 2394350400 heartbeat IPC: 0.381174 cumulative IPC: 0.374878 (Simulation time: 1 hr 22 min 14 sec) 
Heartbeat CPU 0 instructions: 852000003 cycles: 2397014793 heartbeat IPC: 0.37532 cumulative IPC: 0.374879 (Simulation time: 1 hr 22 min 22 sec) 
Heartbeat CPU 0 instructions: 853000002 cycles: 2399659974 heartbeat IPC: 0.378046 cumulative IPC: 0.374887 (Simulation time: 1 hr 22 min 30 sec) 
Heartbeat CPU 0 instructions: 854000000 cycles: 2402361433 heartbeat IPC: 0.37017 cumulative IPC: 0.374875 (Simulation time: 1 hr 22 min 37 sec) 
Heartbeat CPU 0 instructions: 855000003 cycles: 2405019764 heartbeat IPC: 0.376177 cumulative IPC: 0.374878 (Simulation time: 1 hr 22 min 45 sec) 
Heartbeat CPU 0 instructions: 856000000 cycles: 2407733581 heartbeat IPC: 0.368484 cumulative IPC: 0.374862 (Simulation time: 1 hr 22 min 53 sec) 
Heartbeat CPU 0 instructions: 857000001 cycles: 2410396305 heartbeat IPC: 0.375556 cumulative IPC: 0.374864 (Simulation time: 1 hr 23 min 1 sec) 
Heartbeat CPU 0 instructions: 858000000 cycles: 2413183550 heartbeat IPC: 0.358777 cumulative IPC: 0.374823 (Simulation time: 1 hr 23 min 8 sec) 
Heartbeat CPU 0 instructions: 859000000 cycles: 2415999365 heartbeat IPC: 0.355137 cumulative IPC: 0.374772 (Simulation time: 1 hr 23 min 16 sec) 
Heartbeat CPU 0 instructions: 860000000 cycles: 2418653061 heartbeat IPC: 0.376833 cumulative IPC: 0.374777 (Simulation time: 1 hr 23 min 24 sec) 
Heartbeat CPU 0 instructions: 861000001 cycles: 2421327176 heartbeat IPC: 0.373956 cumulative IPC: 0.374775 (Simulation time: 1 hr 23 min 32 sec) 
Heartbeat CPU 0 instructions: 862000000 cycles: 2424043239 heartbeat IPC: 0.36818 cumulative IPC: 0.374758 (Simulation time: 1 hr 23 min 39 sec) 
Heartbeat CPU 0 instructions: 863000000 cycles: 2426658047 heartbeat IPC: 0.382437 cumulative IPC: 0.374777 (Simulation time: 1 hr 23 min 47 sec) 
Heartbeat CPU 0 instructions: 864000001 cycles: 2429328506 heartbeat IPC: 0.374468 cumulative IPC: 0.374776 (Simulation time: 1 hr 23 min 55 sec) 
Heartbeat CPU 0 instructions: 865000002 cycles: 2432109039 heartbeat IPC: 0.359644 cumulative IPC: 0.374738 (Simulation time: 1 hr 24 min 2 sec) 
Heartbeat CPU 0 instructions: 866000003 cycles: 2434777118 heartbeat IPC: 0.374802 cumulative IPC: 0.374738 (Simulation time: 1 hr 24 min 10 sec) 
Heartbeat CPU 0 instructions: 867000003 cycles: 2437377880 heartbeat IPC: 0.384503 cumulative IPC: 0.374761 (Simulation time: 1 hr 24 min 18 sec) 
Heartbeat CPU 0 instructions: 868000000 cycles: 2440106670 heartbeat IPC: 0.366462 cumulative IPC: 0.374741 (Simulation time: 1 hr 24 min 26 sec) 
Heartbeat CPU 0 instructions: 869000000 cycles: 2442903105 heartbeat IPC: 0.357598 cumulative IPC: 0.374698 (Simulation time: 1 hr 24 min 33 sec) 
Heartbeat CPU 0 instructions: 870000000 cycles: 2445560912 heartbeat IPC: 0.37625 cumulative IPC: 0.374701 (Simulation time: 1 hr 24 min 41 sec) 
Heartbeat CPU 0 instructions: 871000001 cycles: 2448253400 heartbeat IPC: 0.371404 cumulative IPC: 0.374694 (Simulation time: 1 hr 24 min 49 sec) 
Heartbeat CPU 0 instructions: 872000000 cycles: 2450883906 heartbeat IPC: 0.380155 cumulative IPC: 0.374706 (Simulation time: 1 hr 24 min 56 sec) 
Heartbeat CPU 0 instructions: 873000003 cycles: 2453650064 heartbeat IPC: 0.361513 cumulative IPC: 0.374674 (Simulation time: 1 hr 25 min 4 sec) 
Heartbeat CPU 0 instructions: 874000000 cycles: 2456449946 heartbeat IPC: 0.357157 cumulative IPC: 0.374631 (Simulation time: 1 hr 25 min 11 sec) 
Heartbeat CPU 0 instructions: 875000003 cycles: 2459267733 heartbeat IPC: 0.354889 cumulative IPC: 0.374582 (Simulation time: 1 hr 25 min 19 sec) 
Heartbeat CPU 0 instructions: 876000000 cycles: 2461962112 heartbeat IPC: 0.371142 cumulative IPC: 0.374573 (Simulation time: 1 hr 25 min 26 sec) 
Heartbeat CPU 0 instructions: 877000002 cycles: 2464620847 heartbeat IPC: 0.376119 cumulative IPC: 0.374577 (Simulation time: 1 hr 25 min 34 sec) 
Heartbeat CPU 0 instructions: 878000000 cycles: 2467248533 heartbeat IPC: 0.380562 cumulative IPC: 0.374591 (Simulation time: 1 hr 25 min 42 sec) 
Heartbeat CPU 0 instructions: 879000000 cycles: 2469893766 heartbeat IPC: 0.378039 cumulative IPC: 0.374599 (Simulation time: 1 hr 25 min 50 sec) 
Heartbeat CPU 0 instructions: 880000000 cycles: 2472688968 heartbeat IPC: 0.357756 cumulative IPC: 0.374558 (Simulation time: 1 hr 25 min 58 sec) 
Heartbeat CPU 0 instructions: 881000002 cycles: 2475316857 heartbeat IPC: 0.380534 cumulative IPC: 0.374571 (Simulation time: 1 hr 26 min 6 sec) 
Heartbeat CPU 0 instructions: 882000000 cycles: 2477998883 heartbeat IPC: 0.372852 cumulative IPC: 0.374567 (Simulation time: 1 hr 26 min 14 sec) 
Heartbeat CPU 0 instructions: 883000001 cycles: 2480689879 heartbeat IPC: 0.37161 cumulative IPC: 0.374561 (Simulation time: 1 hr 26 min 21 sec) 
Heartbeat CPU 0 instructions: 884000000 cycles: 2483334944 heartbeat IPC: 0.378062 cumulative IPC: 0.374569 (Simulation time: 1 hr 26 min 29 sec) 
Heartbeat CPU 0 instructions: 885000000 cycles: 2485833741 heartbeat IPC: 0.400193 cumulative IPC: 0.374624 (Simulation time: 1 hr 26 min 37 sec) 
Heartbeat CPU 0 instructions: 886000000 cycles: 2488462193 heartbeat IPC: 0.380452 cumulative IPC: 0.374637 (Simulation time: 1 hr 26 min 44 sec) 
Heartbeat CPU 0 instructions: 887000001 cycles: 2491029021 heartbeat IPC: 0.389586 cumulative IPC: 0.37467 (Simulation time: 1 hr 26 min 52 sec) 
Heartbeat CPU 0 instructions: 888000001 cycles: 2493748899 heartbeat IPC: 0.367664 cumulative IPC: 0.374653 (Simulation time: 1 hr 27 min 0 sec) 
Heartbeat CPU 0 instructions: 889000000 cycles: 2496634175 heartbeat IPC: 0.346587 cumulative IPC: 0.374584 (Simulation time: 1 hr 27 min 7 sec) 
Heartbeat CPU 0 instructions: 890000000 cycles: 2499227615 heartbeat IPC: 0.385588 cumulative IPC: 0.374609 (Simulation time: 1 hr 27 min 15 sec) 
Heartbeat CPU 0 instructions: 891000000 cycles: 2501816043 heartbeat IPC: 0.386335 cumulative IPC: 0.374634 (Simulation time: 1 hr 27 min 22 sec) 
Heartbeat CPU 0 instructions: 892000000 cycles: 2504399724 heartbeat IPC: 0.387045 cumulative IPC: 0.374662 (Simulation time: 1 hr 27 min 30 sec) 
Heartbeat CPU 0 instructions: 893000001 cycles: 2507046537 heartbeat IPC: 0.377813 cumulative IPC: 0.374669 (Simulation time: 1 hr 27 min 37 sec) 
Heartbeat CPU 0 instructions: 894000000 cycles: 2509741948 heartbeat IPC: 0.371001 cumulative IPC: 0.37466 (Simulation time: 1 hr 27 min 45 sec) 
Heartbeat CPU 0 instructions: 895000000 cycles: 2512341541 heartbeat IPC: 0.384676 cumulative IPC: 0.374682 (Simulation time: 1 hr 27 min 53 sec) 
Heartbeat CPU 0 instructions: 896000002 cycles: 2514993341 heartbeat IPC: 0.377103 cumulative IPC: 0.374688 (Simulation time: 1 hr 28 min 1 sec) 
Heartbeat CPU 0 instructions: 897000000 cycles: 2517487940 heartbeat IPC: 0.400865 cumulative IPC: 0.374742 (Simulation time: 1 hr 28 min 8 sec) 
Heartbeat CPU 0 instructions: 898000000 cycles: 2520156336 heartbeat IPC: 0.374757 cumulative IPC: 0.374742 (Simulation time: 1 hr 28 min 16 sec) 
Heartbeat CPU 0 instructions: 899000002 cycles: 2522724761 heartbeat IPC: 0.389344 cumulative IPC: 0.374774 (Simulation time: 1 hr 28 min 23 sec) 
Heartbeat CPU 0 instructions: 900000002 cycles: 2525226377 heartbeat IPC: 0.399742 cumulative IPC: 0.374826 (Simulation time: 1 hr 28 min 31 sec) 
Heartbeat CPU 0 instructions: 901000000 cycles: 2527985359 heartbeat IPC: 0.362452 cumulative IPC: 0.374797 (Simulation time: 1 hr 28 min 38 sec) 
Heartbeat CPU 0 instructions: 902000000 cycles: 2530712583 heartbeat IPC: 0.366673 cumulative IPC: 0.374779 (Simulation time: 1 hr 28 min 46 sec) 
Heartbeat CPU 0 instructions: 903000003 cycles: 2533358627 heartbeat IPC: 0.377924 cumulative IPC: 0.374786 (Simulation time: 1 hr 28 min 54 sec) 
Heartbeat CPU 0 instructions: 904000001 cycles: 2535962337 heartbeat IPC: 0.384067 cumulative IPC: 0.374806 (Simulation time: 1 hr 29 min 1 sec) 
Heartbeat CPU 0 instructions: 905000001 cycles: 2538731848 heartbeat IPC: 0.361075 cumulative IPC: 0.374774 (Simulation time: 1 hr 29 min 9 sec) 
Heartbeat CPU 0 instructions: 906000000 cycles: 2541336114 heartbeat IPC: 0.383985 cumulative IPC: 0.374794 (Simulation time: 1 hr 29 min 17 sec) 
Heartbeat CPU 0 instructions: 907000001 cycles: 2544038176 heartbeat IPC: 0.370088 cumulative IPC: 0.374784 (Simulation time: 1 hr 29 min 25 sec) 
Heartbeat CPU 0 instructions: 908000000 cycles: 2546771756 heartbeat IPC: 0.36582 cumulative IPC: 0.374764 (Simulation time: 1 hr 29 min 33 sec) 
Heartbeat CPU 0 instructions: 909000001 cycles: 2549313006 heartbeat IPC: 0.393508 cumulative IPC: 0.374803 (Simulation time: 1 hr 29 min 40 sec) 
Heartbeat CPU 0 instructions: 910000000 cycles: 2551997349 heartbeat IPC: 0.37253 cumulative IPC: 0.374798 (Simulation time: 1 hr 29 min 48 sec) 
Heartbeat CPU 0 instructions: 911000000 cycles: 2554819337 heartbeat IPC: 0.35436 cumulative IPC: 0.374751 (Simulation time: 1 hr 29 min 56 sec) 
Heartbeat CPU 0 instructions: 912000000 cycles: 2557478161 heartbeat IPC: 0.376106 cumulative IPC: 0.374754 (Simulation time: 1 hr 30 min 3 sec) 
Heartbeat CPU 0 instructions: 913000000 cycles: 2560280123 heartbeat IPC: 0.356893 cumulative IPC: 0.374713 (Simulation time: 1 hr 30 min 11 sec) 
Heartbeat CPU 0 instructions: 914000001 cycles: 2562855172 heartbeat IPC: 0.388342 cumulative IPC: 0.374742 (Simulation time: 1 hr 30 min 19 sec) 
Heartbeat CPU 0 instructions: 915000001 cycles: 2565610489 heartbeat IPC: 0.362935 cumulative IPC: 0.374715 (Simulation time: 1 hr 30 min 27 sec) 
Heartbeat CPU 0 instructions: 916000001 cycles: 2568189427 heartbeat IPC: 0.387756 cumulative IPC: 0.374742 (Simulation time: 1 hr 30 min 35 sec) 
Heartbeat CPU 0 instructions: 917000003 cycles: 2570952817 heartbeat IPC: 0.361875 cumulative IPC: 0.374714 (Simulation time: 1 hr 30 min 42 sec) 
Heartbeat CPU 0 instructions: 918000000 cycles: 2573472598 heartbeat IPC: 0.396859 cumulative IPC: 0.374759 (Simulation time: 1 hr 30 min 50 sec) 
Heartbeat CPU 0 instructions: 919000000 cycles: 2576334373 heartbeat IPC: 0.349433 cumulative IPC: 0.374701 (Simulation time: 1 hr 30 min 57 sec) 
Heartbeat CPU 0 instructions: 920000001 cycles: 2578935506 heartbeat IPC: 0.384448 cumulative IPC: 0.374721 (Simulation time: 1 hr 31 min 5 sec) 
Heartbeat CPU 0 instructions: 921000001 cycles: 2581378863 heartbeat IPC: 0.409273 cumulative IPC: 0.374788 (Simulation time: 1 hr 31 min 12 sec) 
Heartbeat CPU 0 instructions: 922000002 cycles: 2583658392 heartbeat IPC: 0.438688 cumulative IPC: 0.374904 (Simulation time: 1 hr 31 min 19 sec) 
Heartbeat CPU 0 instructions: 923000003 cycles: 2585659724 heartbeat IPC: 0.499668 cumulative IPC: 0.375102 (Simulation time: 1 hr 31 min 27 sec) 
Heartbeat CPU 0 instructions: 924000000 cycles: 2588453976 heartbeat IPC: 0.357876 cumulative IPC: 0.375064 (Simulation time: 1 hr 31 min 35 sec) 
Heartbeat CPU 0 instructions: 925000001 cycles: 2591168598 heartbeat IPC: 0.368376 cumulative IPC: 0.375049 (Simulation time: 1 hr 31 min 43 sec) 
Heartbeat CPU 0 instructions: 926000000 cycles: 2593848784 heartbeat IPC: 0.373108 cumulative IPC: 0.375045 (Simulation time: 1 hr 31 min 51 sec) 
Heartbeat CPU 0 instructions: 927000003 cycles: 2596469436 heartbeat IPC: 0.381586 cumulative IPC: 0.375059 (Simulation time: 1 hr 31 min 59 sec) 
Heartbeat CPU 0 instructions: 928000003 cycles: 2599234148 heartbeat IPC: 0.361701 cumulative IPC: 0.37503 (Simulation time: 1 hr 32 min 7 sec) 
Heartbeat CPU 0 instructions: 929000003 cycles: 2601901490 heartbeat IPC: 0.374905 cumulative IPC: 0.375029 (Simulation time: 1 hr 32 min 14 sec) 
Heartbeat CPU 0 instructions: 930000000 cycles: 2604805334 heartbeat IPC: 0.34437 cumulative IPC: 0.37496 (Simulation time: 1 hr 32 min 22 sec) 
Heartbeat CPU 0 instructions: 931000001 cycles: 2607269777 heartbeat IPC: 0.405772 cumulative IPC: 0.375019 (Simulation time: 1 hr 32 min 30 sec) 
Heartbeat CPU 0 instructions: 932000003 cycles: 2609873554 heartbeat IPC: 0.384058 cumulative IPC: 0.375037 (Simulation time: 1 hr 32 min 38 sec) 
Heartbeat CPU 0 instructions: 933000000 cycles: 2612669398 heartbeat IPC: 0.357673 cumulative IPC: 0.375 (Simulation time: 1 hr 32 min 46 sec) 
Heartbeat CPU 0 instructions: 934000001 cycles: 2615255147 heartbeat IPC: 0.386736 cumulative IPC: 0.375023 (Simulation time: 1 hr 32 min 54 sec) 
Heartbeat CPU 0 instructions: 935000000 cycles: 2617757449 heartbeat IPC: 0.399632 cumulative IPC: 0.375071 (Simulation time: 1 hr 33 min 1 sec) 
Heartbeat CPU 0 instructions: 936000001 cycles: 2620419305 heartbeat IPC: 0.375678 cumulative IPC: 0.375072 (Simulation time: 1 hr 33 min 8 sec) 
Heartbeat CPU 0 instructions: 937000001 cycles: 2623046380 heartbeat IPC: 0.380651 cumulative IPC: 0.375083 (Simulation time: 1 hr 33 min 16 sec) 
Heartbeat CPU 0 instructions: 938000001 cycles: 2625813071 heartbeat IPC: 0.361443 cumulative IPC: 0.375054 (Simulation time: 1 hr 33 min 23 sec) 
Heartbeat CPU 0 instructions: 939000003 cycles: 2628545225 heartbeat IPC: 0.366012 cumulative IPC: 0.375035 (Simulation time: 1 hr 33 min 31 sec) 
Heartbeat CPU 0 instructions: 940000000 cycles: 2631197146 heartbeat IPC: 0.377084 cumulative IPC: 0.37504 (Simulation time: 1 hr 33 min 38 sec) 
Heartbeat CPU 0 instructions: 941000001 cycles: 2633919519 heartbeat IPC: 0.367327 cumulative IPC: 0.375024 (Simulation time: 1 hr 33 min 46 sec) 
Heartbeat CPU 0 instructions: 942000002 cycles: 2636542814 heartbeat IPC: 0.3812 cumulative IPC: 0.375036 (Simulation time: 1 hr 33 min 53 sec) 
Heartbeat CPU 0 instructions: 943000001 cycles: 2639261306 heartbeat IPC: 0.367851 cumulative IPC: 0.375021 (Simulation time: 1 hr 34 min 1 sec) 
Heartbeat CPU 0 instructions: 944000001 cycles: 2641975177 heartbeat IPC: 0.368477 cumulative IPC: 0.375008 (Simulation time: 1 hr 34 min 9 sec) 
Heartbeat CPU 0 instructions: 945000001 cycles: 2644567064 heartbeat IPC: 0.385819 cumulative IPC: 0.375029 (Simulation time: 1 hr 34 min 16 sec) 
Heartbeat CPU 0 instructions: 946000000 cycles: 2647378162 heartbeat IPC: 0.355733 cumulative IPC: 0.374988 (Simulation time: 1 hr 34 min 24 sec) 
Heartbeat CPU 0 instructions: 947000003 cycles: 2649972513 heartbeat IPC: 0.385454 cumulative IPC: 0.375008 (Simulation time: 1 hr 34 min 32 sec) 
Heartbeat CPU 0 instructions: 948000003 cycles: 2652559703 heartbeat IPC: 0.38652 cumulative IPC: 0.375031 (Simulation time: 1 hr 34 min 40 sec) 
Heartbeat CPU 0 instructions: 949000000 cycles: 2655187316 heartbeat IPC: 0.380572 cumulative IPC: 0.375042 (Simulation time: 1 hr 34 min 47 sec) 
Heartbeat CPU 0 instructions: 950000001 cycles: 2658057399 heartbeat IPC: 0.348422 cumulative IPC: 0.374984 (Simulation time: 1 hr 34 min 55 sec) 
Finished CPU 0 instructions: 500000000 cycles: 1333388985 cumulative IPC: 0.374984 (Simulation time: 1 hr 34 min 55 sec) 

ChampSim completed all CPUs

Region of Interest Statistics

CPU 0 cumulative IPC: 0.374984 instructions: 500000000 cycles: 1333388985
L1D TOTAL     ACCESS:  208219989  HIT:  198908908  MISS:    9311081
L1D LOAD      ACCESS:  119183160  HIT:  111038214  MISS:    8144946
L1D RFO       ACCESS:   89036829  HIT:   87870694  MISS:    1166135
L1D PREFETCH  ACCESS:          0  HIT:          0  MISS:          0
L1D WRITEBACK ACCESS:          0  HIT:          0  MISS:          0
L1D PREFETCH  REQUESTED:          0  ISSUED:          0  USEFUL:          0  USELESS:          0
L1D AVERAGE MISS LATENCY: 107.677 cycles
L1I TOTAL     ACCESS:  112427297  HIT:  112113885  MISS:     313412
L1I LOAD      ACCESS:  112427297  HIT:  112113885  MISS:     313412
L1I RFO       ACCESS:          0  HIT:          0  MISS:          0
L1I PREFETCH  ACCESS:          0  HIT:          0  MISS:          0
L1I WRITEBACK ACCESS:          0  HIT:          0  MISS:          0
L1I PREFETCH  REQUESTED:          0  ISSUED:          0  USEFUL:          0  USELESS:          0
L1I AVERAGE MISS LATENCY: 31.7887 cycles
L2C TOTAL     ACCESS:   14176766  HIT:    7323431  MISS:    6853335
L2C LOAD      ACCESS:    8458162  HIT:    2525272  MISS:    5932890
L2C RFO       ACCESS:    1166116  HIT:     251752  MISS:     914364
L2C PREFETCH  ACCESS:          0  HIT:          0  MISS:          0
L2C WRITEBACK ACCESS:    4552488  HIT:    4546407  MISS:       6081
L2C PREFETCH  REQUESTED:          0  ISSUED:          0  USEFUL:          0  USELESS:          0
L2C AVERAGE MISS LATENCY: 118.118 cycles
LLC TOTAL     ACCESS:   21467094  HIT:   11987606  MISS:    9479488
LLC LOAD      ACCESS:    5932885  HIT:    3237710  MISS:    2695175
LLC RFO       ACCESS:     914364  HIT:     325188  MISS:     589176
LLC PREFETCH  ACCESS:   11264257  HIT:    5134381  MISS:    6129876
LLC WRITEBACK ACCESS:    3355588  HIT:    3290327  MISS:      65261
LLC PREFETCH  REQUESTED:   11589770  ISSUED:   11589770  USEFUL:    2169402  USELESS:    3947469
LLC AVERAGE MISS LATENCY: 195.24 cycles
Major fault: 0 Minor fault: 55388
performance stats:
mapping cache size: 656803
divergence: 7118443

DRAM Statistics
 CHANNEL 0
 RQ ROW_BUFFER_HIT:     363958  ROW_BUFFER_MISS:    9050180
 DBUS_CONGESTED:    4831269
 WQ ROW_BUFFER_HIT:     343024  ROW_BUFFER_MISS:    2246119  FULL:          0

 AVG_CONGESTED_CYCLE: 6

CPU 0 Branch Prediction Accuracy: 98.1905% MPKI: 3.8015 Average ROB Occupancy at Mispredict: 99.3346

Branch types
NOT_BRANCH: 394959451 78.9919%
BRANCH_DIRECT_JUMP: 5880861 1.17617%
BRANCH_INDIRECT: 1691863 0.338373%
BRANCH_CONDITIONAL: 67075907 13.4152%
BRANCH_DIRECT_CALL: 9244787 1.84896%
BRANCH_INDIRECT_CALL: 5951326 1.19027%
BRANCH_RETURN: 15196113 3.03922%
BRANCH_OTHER: 0 0%

