
*** ChampSim Multicore Out-of-Order Simulator ***

Warmup Instructions: 1000000
Prefetch Warmup Instructions: 450000000
Simulation Instructions: 500000000
Stat Printing Period: 1000000
Number of CPUs: 1
LLC sets: 2048
LLC ways: 16
Off-chip DRAM Size: 4096 MB Channels: 1 Width: 64-bit Data Rate: 3200 MT/s

CPU 0 runs /scratch/cluster/cmolder/ML-DPC/ChampSimTraces/spec17/620.omnetpp-s1.trace.xz
Read seed: 229
Heartbeat CPU 0 instructions: 1000000 cycles: 560405 heartbeat IPC: 1.78442 cumulative IPC: 1.78442 (Simulation time: 0 hr 0 min 6 sec) 

Warmup complete CPU 0 instructions: 1000002 cycles: 560406 (Simulation time: 0 hr 0 min 6 sec) 

Heartbeat CPU 0 instructions: 2000003 cycles: 3142878 heartbeat IPC: 0.387227 cumulative IPC: 0.387226 (Simulation time: 0 hr 0 min 10 sec) 
Heartbeat CPU 0 instructions: 3000000 cycles: 5821890 heartbeat IPC: 0.373271 cumulative IPC: 0.380121 (Simulation time: 0 hr 0 min 15 sec) 
Heartbeat CPU 0 instructions: 4000002 cycles: 8640466 heartbeat IPC: 0.35479 cumulative IPC: 0.371284 (Simulation time: 0 hr 0 min 22 sec) 
Heartbeat CPU 0 instructions: 5000000 cycles: 11372671 heartbeat IPC: 0.366004 cumulative IPC: 0.36995 (Simulation time: 0 hr 0 min 27 sec) 
Heartbeat CPU 0 instructions: 6000003 cycles: 14103979 heartbeat IPC: 0.366126 cumulative IPC: 0.369179 (Simulation time: 0 hr 0 min 33 sec) 
Heartbeat CPU 0 instructions: 7000000 cycles: 16959964 heartbeat IPC: 0.350141 cumulative IPC: 0.365863 (Simulation time: 0 hr 0 min 40 sec) 
Heartbeat CPU 0 instructions: 8000000 cycles: 19603252 heartbeat IPC: 0.378317 cumulative IPC: 0.367592 (Simulation time: 0 hr 0 min 47 sec) 
Heartbeat CPU 0 instructions: 9000001 cycles: 22309686 heartbeat IPC: 0.36949 cumulative IPC: 0.367828 (Simulation time: 0 hr 0 min 54 sec) 
Heartbeat CPU 0 instructions: 10000001 cycles: 25048441 heartbeat IPC: 0.365129 cumulative IPC: 0.367526 (Simulation time: 0 hr 1 min 1 sec) 
Heartbeat CPU 0 instructions: 11000000 cycles: 27758417 heartbeat IPC: 0.369007 cumulative IPC: 0.367674 (Simulation time: 0 hr 1 min 6 sec) 
Heartbeat CPU 0 instructions: 12000001 cycles: 30539030 heartbeat IPC: 0.359633 cumulative IPC: 0.366928 (Simulation time: 0 hr 1 min 11 sec) 
Heartbeat CPU 0 instructions: 13000002 cycles: 33192069 heartbeat IPC: 0.376927 cumulative IPC: 0.367741 (Simulation time: 0 hr 1 min 17 sec) 
Heartbeat CPU 0 instructions: 14000000 cycles: 35927297 heartbeat IPC: 0.3656 cumulative IPC: 0.367575 (Simulation time: 0 hr 1 min 24 sec) 
Heartbeat CPU 0 instructions: 15000001 cycles: 38546090 heartbeat IPC: 0.381856 cumulative IPC: 0.36856 (Simulation time: 0 hr 1 min 30 sec) 
Heartbeat CPU 0 instructions: 16000003 cycles: 41147552 heartbeat IPC: 0.3844 cumulative IPC: 0.369575 (Simulation time: 0 hr 1 min 37 sec) 
Heartbeat CPU 0 instructions: 17000002 cycles: 43916846 heartbeat IPC: 0.361102 cumulative IPC: 0.369034 (Simulation time: 0 hr 1 min 44 sec) 
Heartbeat CPU 0 instructions: 18000002 cycles: 46654236 heartbeat IPC: 0.365311 cumulative IPC: 0.368813 (Simulation time: 0 hr 1 min 50 sec) 
Heartbeat CPU 0 instructions: 19000000 cycles: 49555260 heartbeat IPC: 0.344705 cumulative IPC: 0.367385 (Simulation time: 0 hr 1 min 57 sec) 
Heartbeat CPU 0 instructions: 20000000 cycles: 52491045 heartbeat IPC: 0.340624 cumulative IPC: 0.365873 (Simulation time: 0 hr 2 min 4 sec) 
Heartbeat CPU 0 instructions: 21000001 cycles: 55155455 heartbeat IPC: 0.375318 cumulative IPC: 0.366334 (Simulation time: 0 hr 2 min 11 sec) 
Heartbeat CPU 0 instructions: 22000000 cycles: 57795052 heartbeat IPC: 0.378845 cumulative IPC: 0.366911 (Simulation time: 0 hr 2 min 17 sec) 
Heartbeat CPU 0 instructions: 23000002 cycles: 60744815 heartbeat IPC: 0.339011 cumulative IPC: 0.365543 (Simulation time: 0 hr 2 min 24 sec) 
Heartbeat CPU 0 instructions: 24000002 cycles: 63459551 heartbeat IPC: 0.36836 cumulative IPC: 0.365665 (Simulation time: 0 hr 2 min 29 sec) 
Heartbeat CPU 0 instructions: 25000000 cycles: 66088188 heartbeat IPC: 0.380425 cumulative IPC: 0.366257 (Simulation time: 0 hr 2 min 33 sec) 
Heartbeat CPU 0 instructions: 26000001 cycles: 68995152 heartbeat IPC: 0.344002 cumulative IPC: 0.365312 (Simulation time: 0 hr 2 min 38 sec) 
Heartbeat CPU 0 instructions: 27000003 cycles: 71674434 heartbeat IPC: 0.373235 cumulative IPC: 0.36561 (Simulation time: 0 hr 2 min 44 sec) 
Heartbeat CPU 0 instructions: 28000002 cycles: 74535347 heartbeat IPC: 0.349538 cumulative IPC: 0.364988 (Simulation time: 0 hr 2 min 49 sec) 
Heartbeat CPU 0 instructions: 29000003 cycles: 77358373 heartbeat IPC: 0.35423 cumulative IPC: 0.364593 (Simulation time: 0 hr 2 min 54 sec) 
Heartbeat CPU 0 instructions: 30000002 cycles: 80303090 heartbeat IPC: 0.339591 cumulative IPC: 0.36367 (Simulation time: 0 hr 2 min 58 sec) 
Heartbeat CPU 0 instructions: 31000000 cycles: 83043279 heartbeat IPC: 0.364938 cumulative IPC: 0.363712 (Simulation time: 0 hr 3 min 2 sec) 
Heartbeat CPU 0 instructions: 32000000 cycles: 85904806 heartbeat IPC: 0.349464 cumulative IPC: 0.363234 (Simulation time: 0 hr 3 min 6 sec) 
Heartbeat CPU 0 instructions: 33000000 cycles: 88652520 heartbeat IPC: 0.363939 cumulative IPC: 0.363256 (Simulation time: 0 hr 3 min 12 sec) 
Heartbeat CPU 0 instructions: 34000000 cycles: 91384598 heartbeat IPC: 0.366022 cumulative IPC: 0.363339 (Simulation time: 0 hr 3 min 19 sec) 
Heartbeat CPU 0 instructions: 35000000 cycles: 94252012 heartbeat IPC: 0.348746 cumulative IPC: 0.362893 (Simulation time: 0 hr 3 min 25 sec) 
Heartbeat CPU 0 instructions: 36000000 cycles: 97020231 heartbeat IPC: 0.361243 cumulative IPC: 0.362845 (Simulation time: 0 hr 3 min 32 sec) 
Heartbeat CPU 0 instructions: 37000003 cycles: 99889060 heartbeat IPC: 0.348575 cumulative IPC: 0.362433 (Simulation time: 0 hr 3 min 39 sec) 
Heartbeat CPU 0 instructions: 38000001 cycles: 102869056 heartbeat IPC: 0.33557 cumulative IPC: 0.361651 (Simulation time: 0 hr 3 min 47 sec) 
Heartbeat CPU 0 instructions: 39000000 cycles: 105769583 heartbeat IPC: 0.344765 cumulative IPC: 0.361185 (Simulation time: 0 hr 3 min 54 sec) 
Heartbeat CPU 0 instructions: 40000000 cycles: 108277519 heartbeat IPC: 0.398734 cumulative IPC: 0.362059 (Simulation time: 0 hr 4 min 1 sec) 
Heartbeat CPU 0 instructions: 41000001 cycles: 110835368 heartbeat IPC: 0.390954 cumulative IPC: 0.36273 (Simulation time: 0 hr 4 min 8 sec) 
Heartbeat CPU 0 instructions: 42000002 cycles: 113644840 heartbeat IPC: 0.355939 cumulative IPC: 0.362561 (Simulation time: 0 hr 4 min 15 sec) 
Heartbeat CPU 0 instructions: 43000001 cycles: 116471762 heartbeat IPC: 0.353741 cumulative IPC: 0.362346 (Simulation time: 0 hr 4 min 20 sec) 
Heartbeat CPU 0 instructions: 44000000 cycles: 119292896 heartbeat IPC: 0.354467 cumulative IPC: 0.362159 (Simulation time: 0 hr 4 min 24 sec) 
Heartbeat CPU 0 instructions: 45000001 cycles: 122273436 heartbeat IPC: 0.33551 cumulative IPC: 0.361506 (Simulation time: 0 hr 4 min 29 sec) 
Heartbeat CPU 0 instructions: 46000000 cycles: 125012144 heartbeat IPC: 0.365135 cumulative IPC: 0.361586 (Simulation time: 0 hr 4 min 36 sec) 
Heartbeat CPU 0 instructions: 47000001 cycles: 127928403 heartbeat IPC: 0.342905 cumulative IPC: 0.361158 (Simulation time: 0 hr 4 min 43 sec) 
Heartbeat CPU 0 instructions: 48000002 cycles: 130868891 heartbeat IPC: 0.34008 cumulative IPC: 0.360683 (Simulation time: 0 hr 4 min 49 sec) 
Heartbeat CPU 0 instructions: 49000003 cycles: 133508390 heartbeat IPC: 0.37886 cumulative IPC: 0.361043 (Simulation time: 0 hr 4 min 53 sec) 
Heartbeat CPU 0 instructions: 50000000 cycles: 136411853 heartbeat IPC: 0.344415 cumulative IPC: 0.360688 (Simulation time: 0 hr 5 min 1 sec) 
Heartbeat CPU 0 instructions: 51000000 cycles: 139047604 heartbeat IPC: 0.379398 cumulative IPC: 0.361044 (Simulation time: 0 hr 5 min 7 sec) 
Heartbeat CPU 0 instructions: 52000000 cycles: 142192116 heartbeat IPC: 0.318014 cumulative IPC: 0.360089 (Simulation time: 0 hr 5 min 15 sec) 
Heartbeat CPU 0 instructions: 53000002 cycles: 145145855 heartbeat IPC: 0.338555 cumulative IPC: 0.359649 (Simulation time: 0 hr 5 min 22 sec) 
Heartbeat CPU 0 instructions: 54000000 cycles: 147743130 heartbeat IPC: 0.385018 cumulative IPC: 0.360097 (Simulation time: 0 hr 5 min 29 sec) 
Heartbeat CPU 0 instructions: 55000000 cycles: 150383022 heartbeat IPC: 0.378803 cumulative IPC: 0.360426 (Simulation time: 0 hr 5 min 34 sec) 
Heartbeat CPU 0 instructions: 56000001 cycles: 153176411 heartbeat IPC: 0.357988 cumulative IPC: 0.360382 (Simulation time: 0 hr 5 min 41 sec) 
Heartbeat CPU 0 instructions: 57000000 cycles: 156004963 heartbeat IPC: 0.353537 cumulative IPC: 0.360257 (Simulation time: 0 hr 5 min 49 sec) 
Heartbeat CPU 0 instructions: 58000000 cycles: 158769591 heartbeat IPC: 0.361712 cumulative IPC: 0.360282 (Simulation time: 0 hr 5 min 55 sec) 
Heartbeat CPU 0 instructions: 59000003 cycles: 161650327 heartbeat IPC: 0.347135 cumulative IPC: 0.360047 (Simulation time: 0 hr 6 min 0 sec) 
Heartbeat CPU 0 instructions: 60000001 cycles: 164342084 heartbeat IPC: 0.371504 cumulative IPC: 0.360236 (Simulation time: 0 hr 6 min 7 sec) 
Heartbeat CPU 0 instructions: 61000000 cycles: 167152329 heartbeat IPC: 0.355841 cumulative IPC: 0.360162 (Simulation time: 0 hr 6 min 13 sec) 
Heartbeat CPU 0 instructions: 62000001 cycles: 169985342 heartbeat IPC: 0.352981 cumulative IPC: 0.360041 (Simulation time: 0 hr 6 min 20 sec) 
Heartbeat CPU 0 instructions: 63000003 cycles: 172739882 heartbeat IPC: 0.363038 cumulative IPC: 0.360089 (Simulation time: 0 hr 6 min 27 sec) 
Heartbeat CPU 0 instructions: 64000003 cycles: 175436756 heartbeat IPC: 0.3708 cumulative IPC: 0.360255 (Simulation time: 0 hr 6 min 33 sec) 
Heartbeat CPU 0 instructions: 65000001 cycles: 178270382 heartbeat IPC: 0.352904 cumulative IPC: 0.360137 (Simulation time: 0 hr 6 min 40 sec) 
Heartbeat CPU 0 instructions: 66000000 cycles: 180918170 heartbeat IPC: 0.377673 cumulative IPC: 0.360395 (Simulation time: 0 hr 6 min 47 sec) 
Heartbeat CPU 0 instructions: 67000002 cycles: 183830705 heartbeat IPC: 0.343344 cumulative IPC: 0.360124 (Simulation time: 0 hr 6 min 54 sec) 
Heartbeat CPU 0 instructions: 68000000 cycles: 186391938 heartbeat IPC: 0.390436 cumulative IPC: 0.360542 (Simulation time: 0 hr 7 min 0 sec) 
Heartbeat CPU 0 instructions: 69000000 cycles: 189291651 heartbeat IPC: 0.344862 cumulative IPC: 0.360301 (Simulation time: 0 hr 7 min 6 sec) 
Heartbeat CPU 0 instructions: 70000001 cycles: 191914883 heartbeat IPC: 0.38121 cumulative IPC: 0.360587 (Simulation time: 0 hr 7 min 13 sec) 
Heartbeat CPU 0 instructions: 71000001 cycles: 194563674 heartbeat IPC: 0.377531 cumulative IPC: 0.360819 (Simulation time: 0 hr 7 min 19 sec) 
Heartbeat CPU 0 instructions: 72000003 cycles: 197297362 heartbeat IPC: 0.365807 cumulative IPC: 0.360888 (Simulation time: 0 hr 7 min 26 sec) 
Heartbeat CPU 0 instructions: 73000000 cycles: 200177169 heartbeat IPC: 0.347244 cumulative IPC: 0.360691 (Simulation time: 0 hr 7 min 33 sec) 
Heartbeat CPU 0 instructions: 74000000 cycles: 203132405 heartbeat IPC: 0.338382 cumulative IPC: 0.360366 (Simulation time: 0 hr 7 min 39 sec) 
Heartbeat CPU 0 instructions: 75000000 cycles: 205874567 heartbeat IPC: 0.364676 cumulative IPC: 0.360423 (Simulation time: 0 hr 7 min 43 sec) 
Heartbeat CPU 0 instructions: 76000002 cycles: 208747520 heartbeat IPC: 0.348075 cumulative IPC: 0.360253 (Simulation time: 0 hr 7 min 48 sec) 
Heartbeat CPU 0 instructions: 77000000 cycles: 211539693 heartbeat IPC: 0.358143 cumulative IPC: 0.360225 (Simulation time: 0 hr 7 min 55 sec) 
Heartbeat CPU 0 instructions: 78000001 cycles: 214242460 heartbeat IPC: 0.369992 cumulative IPC: 0.360348 (Simulation time: 0 hr 8 min 2 sec) 
Heartbeat CPU 0 instructions: 79000000 cycles: 217094032 heartbeat IPC: 0.350683 cumulative IPC: 0.360221 (Simulation time: 0 hr 8 min 10 sec) 
Heartbeat CPU 0 instructions: 80000002 cycles: 219864581 heartbeat IPC: 0.36094 cumulative IPC: 0.36023 (Simulation time: 0 hr 8 min 17 sec) 
Heartbeat CPU 0 instructions: 81000003 cycles: 222618162 heartbeat IPC: 0.363164 cumulative IPC: 0.360267 (Simulation time: 0 hr 8 min 24 sec) 
Heartbeat CPU 0 instructions: 82000001 cycles: 225382300 heartbeat IPC: 0.361776 cumulative IPC: 0.360285 (Simulation time: 0 hr 8 min 31 sec) 
Heartbeat CPU 0 instructions: 83000000 cycles: 228166709 heartbeat IPC: 0.359142 cumulative IPC: 0.360271 (Simulation time: 0 hr 8 min 38 sec) 
Heartbeat CPU 0 instructions: 84000000 cycles: 231084033 heartbeat IPC: 0.34278 cumulative IPC: 0.36005 (Simulation time: 0 hr 8 min 42 sec) 
Heartbeat CPU 0 instructions: 85000000 cycles: 233796613 heartbeat IPC: 0.368653 cumulative IPC: 0.36015 (Simulation time: 0 hr 8 min 48 sec) 
Heartbeat CPU 0 instructions: 86000001 cycles: 236487000 heartbeat IPC: 0.371694 cumulative IPC: 0.360282 (Simulation time: 0 hr 8 min 55 sec) 
Heartbeat CPU 0 instructions: 87000003 cycles: 238907654 heartbeat IPC: 0.413112 cumulative IPC: 0.360818 (Simulation time: 0 hr 9 min 1 sec) 
Heartbeat CPU 0 instructions: 88000000 cycles: 241487970 heartbeat IPC: 0.387548 cumulative IPC: 0.361104 (Simulation time: 0 hr 9 min 8 sec) 
Heartbeat CPU 0 instructions: 89000003 cycles: 243956130 heartbeat IPC: 0.405161 cumulative IPC: 0.361551 (Simulation time: 0 hr 9 min 15 sec) 
Heartbeat CPU 0 instructions: 90000002 cycles: 247001401 heartbeat IPC: 0.328378 cumulative IPC: 0.361141 (Simulation time: 0 hr 9 min 23 sec) 
Heartbeat CPU 0 instructions: 91000000 cycles: 249564950 heartbeat IPC: 0.390083 cumulative IPC: 0.361439 (Simulation time: 0 hr 9 min 29 sec) 
Heartbeat CPU 0 instructions: 92000002 cycles: 252476773 heartbeat IPC: 0.343428 cumulative IPC: 0.361231 (Simulation time: 0 hr 9 min 36 sec) 
Heartbeat CPU 0 instructions: 93000003 cycles: 255331813 heartbeat IPC: 0.350258 cumulative IPC: 0.361108 (Simulation time: 0 hr 9 min 43 sec) 
Heartbeat CPU 0 instructions: 94000000 cycles: 258322722 heartbeat IPC: 0.334346 cumulative IPC: 0.360797 (Simulation time: 0 hr 9 min 50 sec) 
Heartbeat CPU 0 instructions: 95000003 cycles: 260925556 heartbeat IPC: 0.384198 cumulative IPC: 0.361031 (Simulation time: 0 hr 9 min 57 sec) 
Heartbeat CPU 0 instructions: 96000002 cycles: 263668816 heartbeat IPC: 0.364529 cumulative IPC: 0.361068 (Simulation time: 0 hr 10 min 2 sec) 
Heartbeat CPU 0 instructions: 97000000 cycles: 266771056 heartbeat IPC: 0.322347 cumulative IPC: 0.360617 (Simulation time: 0 hr 10 min 9 sec) 
Heartbeat CPU 0 instructions: 98000002 cycles: 269594971 heartbeat IPC: 0.354119 cumulative IPC: 0.360548 (Simulation time: 0 hr 10 min 16 sec) 
Heartbeat CPU 0 instructions: 99000000 cycles: 272498775 heartbeat IPC: 0.344375 cumulative IPC: 0.360376 (Simulation time: 0 hr 10 min 23 sec) 
Heartbeat CPU 0 instructions: 100000000 cycles: 275269844 heartbeat IPC: 0.360872 cumulative IPC: 0.360381 (Simulation time: 0 hr 10 min 29 sec) 
Heartbeat CPU 0 instructions: 101000002 cycles: 278028676 heartbeat IPC: 0.362473 cumulative IPC: 0.360402 (Simulation time: 0 hr 10 min 37 sec) 
Heartbeat CPU 0 instructions: 102000000 cycles: 280996679 heartbeat IPC: 0.336926 cumulative IPC: 0.360153 (Simulation time: 0 hr 10 min 42 sec) 
Heartbeat CPU 0 instructions: 103000000 cycles: 283543450 heartbeat IPC: 0.392654 cumulative IPC: 0.360446 (Simulation time: 0 hr 10 min 48 sec) 
Heartbeat CPU 0 instructions: 104000002 cycles: 286455377 heartbeat IPC: 0.343416 cumulative IPC: 0.360272 (Simulation time: 0 hr 10 min 55 sec) 
Heartbeat CPU 0 instructions: 105000000 cycles: 289107554 heartbeat IPC: 0.377048 cumulative IPC: 0.360426 (Simulation time: 0 hr 11 min 1 sec) 
Heartbeat CPU 0 instructions: 106000000 cycles: 292055551 heartbeat IPC: 0.339213 cumulative IPC: 0.360212 (Simulation time: 0 hr 11 min 8 sec) 
Heartbeat CPU 0 instructions: 107000000 cycles: 295161279 heartbeat IPC: 0.321986 cumulative IPC: 0.359809 (Simulation time: 0 hr 11 min 16 sec) 
Heartbeat CPU 0 instructions: 108000002 cycles: 297789974 heartbeat IPC: 0.380418 cumulative IPC: 0.359991 (Simulation time: 0 hr 11 min 23 sec) 
Heartbeat CPU 0 instructions: 109000000 cycles: 300207946 heartbeat IPC: 0.413569 cumulative IPC: 0.360423 (Simulation time: 0 hr 11 min 28 sec) 
Heartbeat CPU 0 instructions: 110000000 cycles: 302791919 heartbeat IPC: 0.387001 cumulative IPC: 0.360651 (Simulation time: 0 hr 11 min 33 sec) 
Heartbeat CPU 0 instructions: 111000000 cycles: 305689010 heartbeat IPC: 0.345174 cumulative IPC: 0.360504 (Simulation time: 0 hr 11 min 37 sec) 
Heartbeat CPU 0 instructions: 112000000 cycles: 308425160 heartbeat IPC: 0.365477 cumulative IPC: 0.360548 (Simulation time: 0 hr 11 min 43 sec) 
Heartbeat CPU 0 instructions: 113000001 cycles: 311404032 heartbeat IPC: 0.335698 cumulative IPC: 0.36031 (Simulation time: 0 hr 11 min 50 sec) 
Heartbeat CPU 0 instructions: 114000001 cycles: 314222020 heartbeat IPC: 0.354863 cumulative IPC: 0.360261 (Simulation time: 0 hr 11 min 56 sec) 
Heartbeat CPU 0 instructions: 115000003 cycles: 316773003 heartbeat IPC: 0.392007 cumulative IPC: 0.360517 (Simulation time: 0 hr 12 min 1 sec) 
Heartbeat CPU 0 instructions: 116000000 cycles: 319529221 heartbeat IPC: 0.362815 cumulative IPC: 0.360537 (Simulation time: 0 hr 12 min 8 sec) 
Heartbeat CPU 0 instructions: 117000002 cycles: 322415062 heartbeat IPC: 0.34652 cumulative IPC: 0.360411 (Simulation time: 0 hr 12 min 15 sec) 
Heartbeat CPU 0 instructions: 118000000 cycles: 325178798 heartbeat IPC: 0.361828 cumulative IPC: 0.360423 (Simulation time: 0 hr 12 min 22 sec) 
Heartbeat CPU 0 instructions: 119000000 cycles: 327854411 heartbeat IPC: 0.373746 cumulative IPC: 0.360532 (Simulation time: 0 hr 12 min 29 sec) 
Heartbeat CPU 0 instructions: 120000003 cycles: 330597742 heartbeat IPC: 0.364521 cumulative IPC: 0.360565 (Simulation time: 0 hr 12 min 35 sec) 
Heartbeat CPU 0 instructions: 121000000 cycles: 333346042 heartbeat IPC: 0.36386 cumulative IPC: 0.360592 (Simulation time: 0 hr 12 min 42 sec) 
Heartbeat CPU 0 instructions: 122000001 cycles: 336291641 heartbeat IPC: 0.33949 cumulative IPC: 0.360407 (Simulation time: 0 hr 12 min 49 sec) 
Heartbeat CPU 0 instructions: 123000003 cycles: 338957196 heartbeat IPC: 0.375157 cumulative IPC: 0.360524 (Simulation time: 0 hr 12 min 56 sec) 
Heartbeat CPU 0 instructions: 124000000 cycles: 341964021 heartbeat IPC: 0.332576 cumulative IPC: 0.360277 (Simulation time: 0 hr 13 min 3 sec) 
Heartbeat CPU 0 instructions: 125000000 cycles: 344651569 heartbeat IPC: 0.372086 cumulative IPC: 0.36037 (Simulation time: 0 hr 13 min 11 sec) 
Heartbeat CPU 0 instructions: 126000002 cycles: 347402849 heartbeat IPC: 0.363468 cumulative IPC: 0.360394 (Simulation time: 0 hr 13 min 18 sec) 
Heartbeat CPU 0 instructions: 127000000 cycles: 350115689 heartbeat IPC: 0.368617 cumulative IPC: 0.360458 (Simulation time: 0 hr 13 min 23 sec) 
Heartbeat CPU 0 instructions: 128000003 cycles: 352815472 heartbeat IPC: 0.370401 cumulative IPC: 0.360534 (Simulation time: 0 hr 13 min 28 sec) 
Heartbeat CPU 0 instructions: 129000000 cycles: 355786564 heartbeat IPC: 0.336576 cumulative IPC: 0.360334 (Simulation time: 0 hr 13 min 35 sec) 
Heartbeat CPU 0 instructions: 130000000 cycles: 358756723 heartbeat IPC: 0.336682 cumulative IPC: 0.360138 (Simulation time: 0 hr 13 min 41 sec) 
Heartbeat CPU 0 instructions: 131000002 cycles: 361367110 heartbeat IPC: 0.383086 cumulative IPC: 0.360304 (Simulation time: 0 hr 13 min 47 sec) 
Heartbeat CPU 0 instructions: 132000000 cycles: 364282281 heartbeat IPC: 0.343032 cumulative IPC: 0.360165 (Simulation time: 0 hr 13 min 52 sec) 
Heartbeat CPU 0 instructions: 133000003 cycles: 367156538 heartbeat IPC: 0.347917 cumulative IPC: 0.360069 (Simulation time: 0 hr 13 min 59 sec) 
Heartbeat CPU 0 instructions: 134000002 cycles: 369915304 heartbeat IPC: 0.362481 cumulative IPC: 0.360087 (Simulation time: 0 hr 14 min 7 sec) 
Heartbeat CPU 0 instructions: 135000001 cycles: 372684535 heartbeat IPC: 0.361111 cumulative IPC: 0.360095 (Simulation time: 0 hr 14 min 14 sec) 
Heartbeat CPU 0 instructions: 136000001 cycles: 375437874 heartbeat IPC: 0.363195 cumulative IPC: 0.360118 (Simulation time: 0 hr 14 min 21 sec) 
Heartbeat CPU 0 instructions: 137000003 cycles: 378095899 heartbeat IPC: 0.37622 cumulative IPC: 0.360231 (Simulation time: 0 hr 14 min 28 sec) 
Heartbeat CPU 0 instructions: 138000001 cycles: 380844132 heartbeat IPC: 0.363869 cumulative IPC: 0.360257 (Simulation time: 0 hr 14 min 33 sec) 
Heartbeat CPU 0 instructions: 139000000 cycles: 384003800 heartbeat IPC: 0.316489 cumulative IPC: 0.359897 (Simulation time: 0 hr 14 min 38 sec) 
Heartbeat CPU 0 instructions: 140000001 cycles: 386493396 heartbeat IPC: 0.401672 cumulative IPC: 0.360166 (Simulation time: 0 hr 14 min 42 sec) 
Heartbeat CPU 0 instructions: 141000003 cycles: 389269818 heartbeat IPC: 0.360177 cumulative IPC: 0.360166 (Simulation time: 0 hr 14 min 47 sec) 
Heartbeat CPU 0 instructions: 142000001 cycles: 391875679 heartbeat IPC: 0.38375 cumulative IPC: 0.360323 (Simulation time: 0 hr 14 min 54 sec) 
Heartbeat CPU 0 instructions: 143000000 cycles: 394754771 heartbeat IPC: 0.347331 cumulative IPC: 0.360228 (Simulation time: 0 hr 15 min 1 sec) 
Heartbeat CPU 0 instructions: 144000000 cycles: 397547915 heartbeat IPC: 0.35802 cumulative IPC: 0.360213 (Simulation time: 0 hr 15 min 9 sec) 
Heartbeat CPU 0 instructions: 145000001 cycles: 400382818 heartbeat IPC: 0.352746 cumulative IPC: 0.36016 (Simulation time: 0 hr 15 min 16 sec) 
Heartbeat CPU 0 instructions: 146000000 cycles: 403246186 heartbeat IPC: 0.349239 cumulative IPC: 0.360082 (Simulation time: 0 hr 15 min 23 sec) 
Heartbeat CPU 0 instructions: 147000003 cycles: 406021171 heartbeat IPC: 0.360363 cumulative IPC: 0.360084 (Simulation time: 0 hr 15 min 29 sec) 
Heartbeat CPU 0 instructions: 148000003 cycles: 408930397 heartbeat IPC: 0.343734 cumulative IPC: 0.359968 (Simulation time: 0 hr 15 min 36 sec) 
Heartbeat CPU 0 instructions: 149000000 cycles: 411682743 heartbeat IPC: 0.363325 cumulative IPC: 0.35999 (Simulation time: 0 hr 15 min 43 sec) 
Heartbeat CPU 0 instructions: 150000002 cycles: 414380885 heartbeat IPC: 0.370626 cumulative IPC: 0.360059 (Simulation time: 0 hr 15 min 50 sec) 
Heartbeat CPU 0 instructions: 151000003 cycles: 417333991 heartbeat IPC: 0.338627 cumulative IPC: 0.359908 (Simulation time: 0 hr 15 min 57 sec) 
Heartbeat CPU 0 instructions: 152000000 cycles: 420178773 heartbeat IPC: 0.35152 cumulative IPC: 0.359851 (Simulation time: 0 hr 16 min 4 sec) 
Heartbeat CPU 0 instructions: 153000001 cycles: 422988976 heartbeat IPC: 0.355847 cumulative IPC: 0.359824 (Simulation time: 0 hr 16 min 11 sec) 
Heartbeat CPU 0 instructions: 154000000 cycles: 425768726 heartbeat IPC: 0.359744 cumulative IPC: 0.359824 (Simulation time: 0 hr 16 min 18 sec) 
Heartbeat CPU 0 instructions: 155000002 cycles: 428772816 heartbeat IPC: 0.33288 cumulative IPC: 0.359635 (Simulation time: 0 hr 16 min 25 sec) 
Heartbeat CPU 0 instructions: 156000001 cycles: 431682999 heartbeat IPC: 0.343621 cumulative IPC: 0.359527 (Simulation time: 0 hr 16 min 32 sec) 
Heartbeat CPU 0 instructions: 157000000 cycles: 434328444 heartbeat IPC: 0.378008 cumulative IPC: 0.359639 (Simulation time: 0 hr 16 min 39 sec) 
Heartbeat CPU 0 instructions: 158000002 cycles: 437226618 heartbeat IPC: 0.345046 cumulative IPC: 0.359542 (Simulation time: 0 hr 16 min 45 sec) 
Heartbeat CPU 0 instructions: 159000001 cycles: 439693016 heartbeat IPC: 0.405449 cumulative IPC: 0.3598 (Simulation time: 0 hr 16 min 52 sec) 
Heartbeat CPU 0 instructions: 160000000 cycles: 442600870 heartbeat IPC: 0.343896 cumulative IPC: 0.359696 (Simulation time: 0 hr 16 min 59 sec) 
Heartbeat CPU 0 instructions: 161000002 cycles: 445602821 heartbeat IPC: 0.333117 cumulative IPC: 0.359516 (Simulation time: 0 hr 17 min 6 sec) 
Heartbeat CPU 0 instructions: 162000001 cycles: 447925701 heartbeat IPC: 0.4305 cumulative IPC: 0.359885 (Simulation time: 0 hr 17 min 13 sec) 
Heartbeat CPU 0 instructions: 163000001 cycles: 450657434 heartbeat IPC: 0.366068 cumulative IPC: 0.359922 (Simulation time: 0 hr 17 min 20 sec) 
Heartbeat CPU 0 instructions: 164000001 cycles: 453346969 heartbeat IPC: 0.371811 cumulative IPC: 0.359993 (Simulation time: 0 hr 17 min 27 sec) 
Heartbeat CPU 0 instructions: 165000000 cycles: 456193549 heartbeat IPC: 0.351298 cumulative IPC: 0.359939 (Simulation time: 0 hr 17 min 34 sec) 
Heartbeat CPU 0 instructions: 166000003 cycles: 459035023 heartbeat IPC: 0.351931 cumulative IPC: 0.359889 (Simulation time: 0 hr 17 min 41 sec) 
Heartbeat CPU 0 instructions: 167000000 cycles: 461858514 heartbeat IPC: 0.35417 cumulative IPC: 0.359854 (Simulation time: 0 hr 17 min 48 sec) 
Heartbeat CPU 0 instructions: 168000001 cycles: 464643388 heartbeat IPC: 0.359083 cumulative IPC: 0.359849 (Simulation time: 0 hr 17 min 56 sec) 
Heartbeat CPU 0 instructions: 169000001 cycles: 467542462 heartbeat IPC: 0.344938 cumulative IPC: 0.359757 (Simulation time: 0 hr 18 min 3 sec) 
Heartbeat CPU 0 instructions: 170000000 cycles: 470125953 heartbeat IPC: 0.387073 cumulative IPC: 0.359907 (Simulation time: 0 hr 18 min 8 sec) 
Heartbeat CPU 0 instructions: 171000001 cycles: 472940752 heartbeat IPC: 0.355265 cumulative IPC: 0.359879 (Simulation time: 0 hr 18 min 13 sec) 
Heartbeat CPU 0 instructions: 172000003 cycles: 475707693 heartbeat IPC: 0.361411 cumulative IPC: 0.359888 (Simulation time: 0 hr 18 min 19 sec) 
Heartbeat CPU 0 instructions: 173000000 cycles: 478364590 heartbeat IPC: 0.376378 cumulative IPC: 0.35998 (Simulation time: 0 hr 18 min 24 sec) 
Heartbeat CPU 0 instructions: 174000002 cycles: 481295418 heartbeat IPC: 0.341201 cumulative IPC: 0.359866 (Simulation time: 0 hr 18 min 31 sec) 
Heartbeat CPU 0 instructions: 175000000 cycles: 484064582 heartbeat IPC: 0.361119 cumulative IPC: 0.359873 (Simulation time: 0 hr 18 min 38 sec) 
Heartbeat CPU 0 instructions: 176000000 cycles: 486908267 heartbeat IPC: 0.351656 cumulative IPC: 0.359825 (Simulation time: 0 hr 18 min 45 sec) 
Heartbeat CPU 0 instructions: 177000000 cycles: 489720040 heartbeat IPC: 0.355647 cumulative IPC: 0.359801 (Simulation time: 0 hr 18 min 52 sec) 
Heartbeat CPU 0 instructions: 178000000 cycles: 492318552 heartbeat IPC: 0.384836 cumulative IPC: 0.359933 (Simulation time: 0 hr 18 min 59 sec) 
Heartbeat CPU 0 instructions: 179000002 cycles: 495270807 heartbeat IPC: 0.338725 cumulative IPC: 0.359806 (Simulation time: 0 hr 19 min 4 sec) 
Heartbeat CPU 0 instructions: 180000000 cycles: 497978175 heartbeat IPC: 0.369362 cumulative IPC: 0.359858 (Simulation time: 0 hr 19 min 8 sec) 
Heartbeat CPU 0 instructions: 181000002 cycles: 500901255 heartbeat IPC: 0.342106 cumulative IPC: 0.359755 (Simulation time: 0 hr 19 min 15 sec) 
Heartbeat CPU 0 instructions: 182000002 cycles: 503640390 heartbeat IPC: 0.365079 cumulative IPC: 0.359784 (Simulation time: 0 hr 19 min 22 sec) 
Heartbeat CPU 0 instructions: 183000002 cycles: 506271491 heartbeat IPC: 0.380069 cumulative IPC: 0.359889 (Simulation time: 0 hr 19 min 28 sec) 
Heartbeat CPU 0 instructions: 184000000 cycles: 509073339 heartbeat IPC: 0.356907 cumulative IPC: 0.359873 (Simulation time: 0 hr 19 min 35 sec) 
Heartbeat CPU 0 instructions: 185000001 cycles: 511936539 heartbeat IPC: 0.34926 cumulative IPC: 0.359813 (Simulation time: 0 hr 19 min 42 sec) 
Heartbeat CPU 0 instructions: 186000001 cycles: 514950900 heartbeat IPC: 0.331745 cumulative IPC: 0.359649 (Simulation time: 0 hr 19 min 49 sec) 
Heartbeat CPU 0 instructions: 187000000 cycles: 517745826 heartbeat IPC: 0.357791 cumulative IPC: 0.359639 (Simulation time: 0 hr 19 min 55 sec) 
Heartbeat CPU 0 instructions: 188000001 cycles: 520456801 heartbeat IPC: 0.368871 cumulative IPC: 0.359687 (Simulation time: 0 hr 20 min 2 sec) 
Heartbeat CPU 0 instructions: 189000001 cycles: 523309538 heartbeat IPC: 0.350541 cumulative IPC: 0.359637 (Simulation time: 0 hr 20 min 9 sec) 
Heartbeat CPU 0 instructions: 190000003 cycles: 526022192 heartbeat IPC: 0.368643 cumulative IPC: 0.359684 (Simulation time: 0 hr 20 min 15 sec) 
Heartbeat CPU 0 instructions: 191000000 cycles: 528676169 heartbeat IPC: 0.376792 cumulative IPC: 0.35977 (Simulation time: 0 hr 20 min 22 sec) 
Heartbeat CPU 0 instructions: 192000000 cycles: 531526392 heartbeat IPC: 0.35085 cumulative IPC: 0.359722 (Simulation time: 0 hr 20 min 29 sec) 
Heartbeat CPU 0 instructions: 193000000 cycles: 534356793 heartbeat IPC: 0.353307 cumulative IPC: 0.359688 (Simulation time: 0 hr 20 min 36 sec) 
Heartbeat CPU 0 instructions: 194000000 cycles: 537081583 heartbeat IPC: 0.367001 cumulative IPC: 0.359725 (Simulation time: 0 hr 20 min 42 sec) 
Heartbeat CPU 0 instructions: 195000002 cycles: 539857064 heartbeat IPC: 0.360299 cumulative IPC: 0.359728 (Simulation time: 0 hr 20 min 46 sec) 
Heartbeat CPU 0 instructions: 196000003 cycles: 542781700 heartbeat IPC: 0.341923 cumulative IPC: 0.359632 (Simulation time: 0 hr 20 min 51 sec) 
Heartbeat CPU 0 instructions: 197000000 cycles: 545334401 heartbeat IPC: 0.391741 cumulative IPC: 0.359782 (Simulation time: 0 hr 20 min 55 sec) 
Heartbeat CPU 0 instructions: 198000000 cycles: 548228741 heartbeat IPC: 0.345502 cumulative IPC: 0.359707 (Simulation time: 0 hr 21 min 0 sec) 
Heartbeat CPU 0 instructions: 199000002 cycles: 550990936 heartbeat IPC: 0.362032 cumulative IPC: 0.359718 (Simulation time: 0 hr 21 min 5 sec) 
Heartbeat CPU 0 instructions: 200000000 cycles: 553753894 heartbeat IPC: 0.36193 cumulative IPC: 0.359729 (Simulation time: 0 hr 21 min 9 sec) 
Heartbeat CPU 0 instructions: 201000001 cycles: 556541949 heartbeat IPC: 0.358673 cumulative IPC: 0.359724 (Simulation time: 0 hr 21 min 14 sec) 
Heartbeat CPU 0 instructions: 202000001 cycles: 559255035 heartbeat IPC: 0.368584 cumulative IPC: 0.359767 (Simulation time: 0 hr 21 min 18 sec) 
Heartbeat CPU 0 instructions: 203000000 cycles: 562012812 heartbeat IPC: 0.362611 cumulative IPC: 0.359781 (Simulation time: 0 hr 21 min 22 sec) 
Heartbeat CPU 0 instructions: 204000003 cycles: 564909128 heartbeat IPC: 0.345267 cumulative IPC: 0.359707 (Simulation time: 0 hr 21 min 26 sec) 
Heartbeat CPU 0 instructions: 205000002 cycles: 567598496 heartbeat IPC: 0.371834 cumulative IPC: 0.359764 (Simulation time: 0 hr 21 min 30 sec) 
Heartbeat CPU 0 instructions: 206000002 cycles: 570317608 heartbeat IPC: 0.367767 cumulative IPC: 0.359802 (Simulation time: 0 hr 21 min 35 sec) 
Heartbeat CPU 0 instructions: 207000002 cycles: 573335075 heartbeat IPC: 0.331404 cumulative IPC: 0.359653 (Simulation time: 0 hr 21 min 42 sec) 
Heartbeat CPU 0 instructions: 208000000 cycles: 576223815 heartbeat IPC: 0.346171 cumulative IPC: 0.359585 (Simulation time: 0 hr 21 min 46 sec) 
Heartbeat CPU 0 instructions: 209000000 cycles: 578846758 heartbeat IPC: 0.381251 cumulative IPC: 0.359683 (Simulation time: 0 hr 21 min 51 sec) 
Heartbeat CPU 0 instructions: 210000000 cycles: 581649504 heartbeat IPC: 0.356793 cumulative IPC: 0.359669 (Simulation time: 0 hr 21 min 55 sec) 
Heartbeat CPU 0 instructions: 211000003 cycles: 584653967 heartbeat IPC: 0.332839 cumulative IPC: 0.359531 (Simulation time: 0 hr 22 min 1 sec) 
Heartbeat CPU 0 instructions: 212000000 cycles: 587441615 heartbeat IPC: 0.358724 cumulative IPC: 0.359528 (Simulation time: 0 hr 22 min 8 sec) 
Heartbeat CPU 0 instructions: 213000003 cycles: 590106977 heartbeat IPC: 0.375185 cumulative IPC: 0.359598 (Simulation time: 0 hr 22 min 15 sec) 
Heartbeat CPU 0 instructions: 214000002 cycles: 592848094 heartbeat IPC: 0.364814 cumulative IPC: 0.359623 (Simulation time: 0 hr 22 min 20 sec) 
Heartbeat CPU 0 instructions: 215000000 cycles: 595552699 heartbeat IPC: 0.369739 cumulative IPC: 0.359669 (Simulation time: 0 hr 22 min 24 sec) 
Heartbeat CPU 0 instructions: 216000003 cycles: 598435034 heartbeat IPC: 0.346942 cumulative IPC: 0.359607 (Simulation time: 0 hr 22 min 28 sec) 
Heartbeat CPU 0 instructions: 217000000 cycles: 601552033 heartbeat IPC: 0.32082 cumulative IPC: 0.359406 (Simulation time: 0 hr 22 min 32 sec) 
Heartbeat CPU 0 instructions: 218000000 cycles: 603761656 heartbeat IPC: 0.452566 cumulative IPC: 0.359747 (Simulation time: 0 hr 22 min 37 sec) 
Heartbeat CPU 0 instructions: 219000003 cycles: 606550083 heartbeat IPC: 0.358626 cumulative IPC: 0.359742 (Simulation time: 0 hr 22 min 41 sec) 
Heartbeat CPU 0 instructions: 220000000 cycles: 609353320 heartbeat IPC: 0.356729 cumulative IPC: 0.359728 (Simulation time: 0 hr 22 min 47 sec) 
Heartbeat CPU 0 instructions: 221000000 cycles: 612165003 heartbeat IPC: 0.355659 cumulative IPC: 0.35971 (Simulation time: 0 hr 22 min 54 sec) 
Heartbeat CPU 0 instructions: 222000003 cycles: 614628738 heartbeat IPC: 0.405889 cumulative IPC: 0.359895 (Simulation time: 0 hr 23 min 0 sec) 
Heartbeat CPU 0 instructions: 223000001 cycles: 617455939 heartbeat IPC: 0.353706 cumulative IPC: 0.359866 (Simulation time: 0 hr 23 min 7 sec) 
Heartbeat CPU 0 instructions: 224000003 cycles: 620237138 heartbeat IPC: 0.359558 cumulative IPC: 0.359865 (Simulation time: 0 hr 23 min 14 sec) 
Heartbeat CPU 0 instructions: 225000000 cycles: 623042317 heartbeat IPC: 0.356482 cumulative IPC: 0.35985 (Simulation time: 0 hr 23 min 21 sec) 
Heartbeat CPU 0 instructions: 226000000 cycles: 625587964 heartbeat IPC: 0.392827 cumulative IPC: 0.359984 (Simulation time: 0 hr 23 min 28 sec) 
Heartbeat CPU 0 instructions: 227000000 cycles: 628403320 heartbeat IPC: 0.355195 cumulative IPC: 0.359963 (Simulation time: 0 hr 23 min 35 sec) 
Heartbeat CPU 0 instructions: 228000000 cycles: 631220854 heartbeat IPC: 0.35492 cumulative IPC: 0.35994 (Simulation time: 0 hr 23 min 42 sec) 
Heartbeat CPU 0 instructions: 229000001 cycles: 634018817 heartbeat IPC: 0.357403 cumulative IPC: 0.359929 (Simulation time: 0 hr 23 min 48 sec) 
Heartbeat CPU 0 instructions: 230000002 cycles: 636804447 heartbeat IPC: 0.358986 cumulative IPC: 0.359925 (Simulation time: 0 hr 23 min 55 sec) 
Heartbeat CPU 0 instructions: 231000000 cycles: 639652628 heartbeat IPC: 0.351101 cumulative IPC: 0.359885 (Simulation time: 0 hr 24 min 2 sec) 
Heartbeat CPU 0 instructions: 232000003 cycles: 642443943 heartbeat IPC: 0.358255 cumulative IPC: 0.359878 (Simulation time: 0 hr 24 min 9 sec) 
Heartbeat CPU 0 instructions: 233000002 cycles: 645275780 heartbeat IPC: 0.353127 cumulative IPC: 0.359849 (Simulation time: 0 hr 24 min 15 sec) 
Heartbeat CPU 0 instructions: 234000002 cycles: 648078815 heartbeat IPC: 0.356756 cumulative IPC: 0.359835 (Simulation time: 0 hr 24 min 23 sec) 
Heartbeat CPU 0 instructions: 235000003 cycles: 650878873 heartbeat IPC: 0.357136 cumulative IPC: 0.359824 (Simulation time: 0 hr 24 min 30 sec) 
Heartbeat CPU 0 instructions: 236000000 cycles: 653768642 heartbeat IPC: 0.346047 cumulative IPC: 0.359763 (Simulation time: 0 hr 24 min 37 sec) 
Heartbeat CPU 0 instructions: 237000000 cycles: 656474438 heartbeat IPC: 0.369577 cumulative IPC: 0.359803 (Simulation time: 0 hr 24 min 44 sec) 
Heartbeat CPU 0 instructions: 238000000 cycles: 659382340 heartbeat IPC: 0.343891 cumulative IPC: 0.359733 (Simulation time: 0 hr 24 min 50 sec) 
Heartbeat CPU 0 instructions: 239000001 cycles: 662045770 heartbeat IPC: 0.375456 cumulative IPC: 0.359796 (Simulation time: 0 hr 24 min 57 sec) 
Heartbeat CPU 0 instructions: 240000001 cycles: 664777687 heartbeat IPC: 0.366043 cumulative IPC: 0.359822 (Simulation time: 0 hr 25 min 3 sec) 
Heartbeat CPU 0 instructions: 241000001 cycles: 667682449 heartbeat IPC: 0.344262 cumulative IPC: 0.359754 (Simulation time: 0 hr 25 min 10 sec) 
Heartbeat CPU 0 instructions: 242000000 cycles: 670581217 heartbeat IPC: 0.344974 cumulative IPC: 0.35969 (Simulation time: 0 hr 25 min 19 sec) 
Heartbeat CPU 0 instructions: 243000003 cycles: 673298465 heartbeat IPC: 0.368021 cumulative IPC: 0.359724 (Simulation time: 0 hr 25 min 27 sec) 
Heartbeat CPU 0 instructions: 244000000 cycles: 676088124 heartbeat IPC: 0.358466 cumulative IPC: 0.359719 (Simulation time: 0 hr 25 min 33 sec) 
Heartbeat CPU 0 instructions: 245000000 cycles: 679005919 heartbeat IPC: 0.342725 cumulative IPC: 0.359646 (Simulation time: 0 hr 25 min 38 sec) 
Heartbeat CPU 0 instructions: 246000000 cycles: 681678897 heartbeat IPC: 0.374115 cumulative IPC: 0.359702 (Simulation time: 0 hr 25 min 42 sec) 
Heartbeat CPU 0 instructions: 247000001 cycles: 684480755 heartbeat IPC: 0.356906 cumulative IPC: 0.359691 (Simulation time: 0 hr 25 min 48 sec) 
Heartbeat CPU 0 instructions: 248000000 cycles: 687254359 heartbeat IPC: 0.360541 cumulative IPC: 0.359694 (Simulation time: 0 hr 25 min 55 sec) 
Heartbeat CPU 0 instructions: 249000001 cycles: 689949418 heartbeat IPC: 0.37105 cumulative IPC: 0.359739 (Simulation time: 0 hr 26 min 1 sec) 
Heartbeat CPU 0 instructions: 250000000 cycles: 692696844 heartbeat IPC: 0.363977 cumulative IPC: 0.359756 (Simulation time: 0 hr 26 min 8 sec) 
Heartbeat CPU 0 instructions: 251000002 cycles: 695454063 heartbeat IPC: 0.362685 cumulative IPC: 0.359767 (Simulation time: 0 hr 26 min 15 sec) 
Heartbeat CPU 0 instructions: 252000000 cycles: 698265829 heartbeat IPC: 0.355648 cumulative IPC: 0.359751 (Simulation time: 0 hr 26 min 22 sec) 
Heartbeat CPU 0 instructions: 253000000 cycles: 700938539 heartbeat IPC: 0.374152 cumulative IPC: 0.359806 (Simulation time: 0 hr 26 min 29 sec) 
Heartbeat CPU 0 instructions: 254000000 cycles: 703949450 heartbeat IPC: 0.332125 cumulative IPC: 0.359687 (Simulation time: 0 hr 26 min 36 sec) 
Heartbeat CPU 0 instructions: 255000003 cycles: 706777908 heartbeat IPC: 0.353551 cumulative IPC: 0.359663 (Simulation time: 0 hr 26 min 41 sec) 
Heartbeat CPU 0 instructions: 256000001 cycles: 709278227 heartbeat IPC: 0.399948 cumulative IPC: 0.359805 (Simulation time: 0 hr 26 min 45 sec) 
Heartbeat CPU 0 instructions: 257000000 cycles: 712169779 heartbeat IPC: 0.345835 cumulative IPC: 0.359748 (Simulation time: 0 hr 26 min 49 sec) 
Heartbeat CPU 0 instructions: 258000002 cycles: 714941392 heartbeat IPC: 0.360801 cumulative IPC: 0.359752 (Simulation time: 0 hr 26 min 53 sec) 
Heartbeat CPU 0 instructions: 259000001 cycles: 717848607 heartbeat IPC: 0.343971 cumulative IPC: 0.359688 (Simulation time: 0 hr 26 min 58 sec) 
Heartbeat CPU 0 instructions: 260000000 cycles: 720560096 heartbeat IPC: 0.368801 cumulative IPC: 0.359722 (Simulation time: 0 hr 27 min 3 sec) 
Heartbeat CPU 0 instructions: 261000000 cycles: 723255321 heartbeat IPC: 0.371027 cumulative IPC: 0.359765 (Simulation time: 0 hr 27 min 7 sec) 
Heartbeat CPU 0 instructions: 262000001 cycles: 726244580 heartbeat IPC: 0.334531 cumulative IPC: 0.359661 (Simulation time: 0 hr 27 min 12 sec) 
Heartbeat CPU 0 instructions: 263000003 cycles: 729054505 heartbeat IPC: 0.355882 cumulative IPC: 0.359646 (Simulation time: 0 hr 27 min 18 sec) 
Heartbeat CPU 0 instructions: 264000000 cycles: 731774686 heartbeat IPC: 0.367621 cumulative IPC: 0.359676 (Simulation time: 0 hr 27 min 23 sec) 
Heartbeat CPU 0 instructions: 265000000 cycles: 734616891 heartbeat IPC: 0.35184 cumulative IPC: 0.359645 (Simulation time: 0 hr 27 min 30 sec) 
Heartbeat CPU 0 instructions: 266000000 cycles: 737493177 heartbeat IPC: 0.347671 cumulative IPC: 0.359599 (Simulation time: 0 hr 27 min 37 sec) 
Heartbeat CPU 0 instructions: 267000001 cycles: 740249696 heartbeat IPC: 0.362777 cumulative IPC: 0.35961 (Simulation time: 0 hr 27 min 44 sec) 
Heartbeat CPU 0 instructions: 268000000 cycles: 742998124 heartbeat IPC: 0.363844 cumulative IPC: 0.359626 (Simulation time: 0 hr 27 min 51 sec) 
Heartbeat CPU 0 instructions: 269000002 cycles: 745811380 heartbeat IPC: 0.355461 cumulative IPC: 0.35961 (Simulation time: 0 hr 27 min 56 sec) 
Heartbeat CPU 0 instructions: 270000000 cycles: 748659591 heartbeat IPC: 0.351097 cumulative IPC: 0.359578 (Simulation time: 0 hr 28 min 0 sec) 
Heartbeat CPU 0 instructions: 271000001 cycles: 751482475 heartbeat IPC: 0.354248 cumulative IPC: 0.359558 (Simulation time: 0 hr 28 min 4 sec) 
Heartbeat CPU 0 instructions: 272000003 cycles: 754568319 heartbeat IPC: 0.324061 cumulative IPC: 0.359413 (Simulation time: 0 hr 28 min 10 sec) 
Heartbeat CPU 0 instructions: 273000002 cycles: 756854761 heartbeat IPC: 0.43736 cumulative IPC: 0.359648 (Simulation time: 0 hr 28 min 16 sec) 
Heartbeat CPU 0 instructions: 274000001 cycles: 759760538 heartbeat IPC: 0.344142 cumulative IPC: 0.359589 (Simulation time: 0 hr 28 min 23 sec) 
Heartbeat CPU 0 instructions: 275000000 cycles: 762480204 heartbeat IPC: 0.367692 cumulative IPC: 0.359618 (Simulation time: 0 hr 28 min 28 sec) 
Heartbeat CPU 0 instructions: 276000000 cycles: 765478580 heartbeat IPC: 0.333514 cumulative IPC: 0.359516 (Simulation time: 0 hr 28 min 32 sec) 
Heartbeat CPU 0 instructions: 277000000 cycles: 768235465 heartbeat IPC: 0.362728 cumulative IPC: 0.359527 (Simulation time: 0 hr 28 min 36 sec) 
Heartbeat CPU 0 instructions: 278000000 cycles: 771103010 heartbeat IPC: 0.34873 cumulative IPC: 0.359487 (Simulation time: 0 hr 28 min 40 sec) 
Heartbeat CPU 0 instructions: 279000001 cycles: 773708641 heartbeat IPC: 0.383785 cumulative IPC: 0.359569 (Simulation time: 0 hr 28 min 44 sec) 
Heartbeat CPU 0 instructions: 280000001 cycles: 776546157 heartbeat IPC: 0.352421 cumulative IPC: 0.359543 (Simulation time: 0 hr 28 min 49 sec) 
Heartbeat CPU 0 instructions: 281000001 cycles: 779383085 heartbeat IPC: 0.352494 cumulative IPC: 0.359517 (Simulation time: 0 hr 28 min 53 sec) 
Heartbeat CPU 0 instructions: 282000001 cycles: 782344418 heartbeat IPC: 0.337686 cumulative IPC: 0.359434 (Simulation time: 0 hr 28 min 57 sec) 
Heartbeat CPU 0 instructions: 283000000 cycles: 785076978 heartbeat IPC: 0.365957 cumulative IPC: 0.359457 (Simulation time: 0 hr 29 min 1 sec) 
Heartbeat CPU 0 instructions: 284000003 cycles: 787822009 heartbeat IPC: 0.364296 cumulative IPC: 0.359474 (Simulation time: 0 hr 29 min 5 sec) 
Heartbeat CPU 0 instructions: 285000000 cycles: 790548071 heartbeat IPC: 0.366828 cumulative IPC: 0.359499 (Simulation time: 0 hr 29 min 10 sec) 
Heartbeat CPU 0 instructions: 286000000 cycles: 793425513 heartbeat IPC: 0.347531 cumulative IPC: 0.359456 (Simulation time: 0 hr 29 min 14 sec) 
Heartbeat CPU 0 instructions: 287000002 cycles: 796196123 heartbeat IPC: 0.360932 cumulative IPC: 0.359461 (Simulation time: 0 hr 29 min 18 sec) 
Heartbeat CPU 0 instructions: 288000000 cycles: 798888401 heartbeat IPC: 0.371432 cumulative IPC: 0.359501 (Simulation time: 0 hr 29 min 22 sec) 
Heartbeat CPU 0 instructions: 289000001 cycles: 801840295 heartbeat IPC: 0.338766 cumulative IPC: 0.359425 (Simulation time: 0 hr 29 min 29 sec) 
Heartbeat CPU 0 instructions: 290000000 cycles: 804635231 heartbeat IPC: 0.35779 cumulative IPC: 0.359419 (Simulation time: 0 hr 29 min 36 sec) 
Heartbeat CPU 0 instructions: 291000002 cycles: 807324286 heartbeat IPC: 0.371879 cumulative IPC: 0.359461 (Simulation time: 0 hr 29 min 42 sec) 
Heartbeat CPU 0 instructions: 292000001 cycles: 810083210 heartbeat IPC: 0.36246 cumulative IPC: 0.359471 (Simulation time: 0 hr 29 min 49 sec) 
Heartbeat CPU 0 instructions: 293000003 cycles: 812948962 heartbeat IPC: 0.348949 cumulative IPC: 0.359434 (Simulation time: 0 hr 29 min 55 sec) 
Heartbeat CPU 0 instructions: 294000001 cycles: 815854503 heartbeat IPC: 0.344169 cumulative IPC: 0.35938 (Simulation time: 0 hr 30 min 2 sec) 
Heartbeat CPU 0 instructions: 295000000 cycles: 818723477 heartbeat IPC: 0.348556 cumulative IPC: 0.359342 (Simulation time: 0 hr 30 min 9 sec) 
Heartbeat CPU 0 instructions: 296000000 cycles: 821439138 heartbeat IPC: 0.368234 cumulative IPC: 0.359371 (Simulation time: 0 hr 30 min 15 sec) 
Heartbeat CPU 0 instructions: 297000000 cycles: 824255690 heartbeat IPC: 0.355044 cumulative IPC: 0.359356 (Simulation time: 0 hr 30 min 22 sec) 
Heartbeat CPU 0 instructions: 298000003 cycles: 827118093 heartbeat IPC: 0.349358 cumulative IPC: 0.359322 (Simulation time: 0 hr 30 min 28 sec) 
Heartbeat CPU 0 instructions: 299000003 cycles: 829897947 heartbeat IPC: 0.359731 cumulative IPC: 0.359323 (Simulation time: 0 hr 30 min 35 sec) 
Heartbeat CPU 0 instructions: 300000000 cycles: 832503903 heartbeat IPC: 0.383735 cumulative IPC: 0.359399 (Simulation time: 0 hr 30 min 41 sec) 
Heartbeat CPU 0 instructions: 301000003 cycles: 835305877 heartbeat IPC: 0.356892 cumulative IPC: 0.359391 (Simulation time: 0 hr 30 min 47 sec) 
Heartbeat CPU 0 instructions: 302000000 cycles: 837919819 heartbeat IPC: 0.382563 cumulative IPC: 0.359463 (Simulation time: 0 hr 30 min 52 sec) 
Heartbeat CPU 0 instructions: 303000001 cycles: 840770406 heartbeat IPC: 0.350805 cumulative IPC: 0.359434 (Simulation time: 0 hr 30 min 56 sec) 
Heartbeat CPU 0 instructions: 304000000 cycles: 843322814 heartbeat IPC: 0.391787 cumulative IPC: 0.359532 (Simulation time: 0 hr 31 min 0 sec) 
Heartbeat CPU 0 instructions: 305000000 cycles: 846254221 heartbeat IPC: 0.341133 cumulative IPC: 0.359468 (Simulation time: 0 hr 31 min 6 sec) 
Heartbeat CPU 0 instructions: 306000001 cycles: 848892744 heartbeat IPC: 0.379 cumulative IPC: 0.359529 (Simulation time: 0 hr 31 min 13 sec) 
Heartbeat CPU 0 instructions: 307000000 cycles: 851695919 heartbeat IPC: 0.356738 cumulative IPC: 0.35952 (Simulation time: 0 hr 31 min 18 sec) 
Heartbeat CPU 0 instructions: 308000000 cycles: 854562706 heartbeat IPC: 0.348823 cumulative IPC: 0.359484 (Simulation time: 0 hr 31 min 22 sec) 
Heartbeat CPU 0 instructions: 309000000 cycles: 857241316 heartbeat IPC: 0.373328 cumulative IPC: 0.359527 (Simulation time: 0 hr 31 min 26 sec) 
Heartbeat CPU 0 instructions: 310000000 cycles: 860002483 heartbeat IPC: 0.362166 cumulative IPC: 0.359536 (Simulation time: 0 hr 31 min 30 sec) 
Heartbeat CPU 0 instructions: 311000000 cycles: 862801126 heartbeat IPC: 0.357316 cumulative IPC: 0.359528 (Simulation time: 0 hr 31 min 35 sec) 
Heartbeat CPU 0 instructions: 312000002 cycles: 865672098 heartbeat IPC: 0.348315 cumulative IPC: 0.359491 (Simulation time: 0 hr 31 min 39 sec) 
Heartbeat CPU 0 instructions: 313000001 cycles: 868222359 heartbeat IPC: 0.392116 cumulative IPC: 0.359587 (Simulation time: 0 hr 31 min 43 sec) 
Heartbeat CPU 0 instructions: 314000000 cycles: 871147760 heartbeat IPC: 0.341833 cumulative IPC: 0.359527 (Simulation time: 0 hr 31 min 47 sec) 
Heartbeat CPU 0 instructions: 315000000 cycles: 873838566 heartbeat IPC: 0.371636 cumulative IPC: 0.359565 (Simulation time: 0 hr 31 min 52 sec) 
Heartbeat CPU 0 instructions: 316000001 cycles: 876489165 heartbeat IPC: 0.377274 cumulative IPC: 0.359618 (Simulation time: 0 hr 31 min 58 sec) 
Heartbeat CPU 0 instructions: 317000003 cycles: 879422808 heartbeat IPC: 0.340874 cumulative IPC: 0.359556 (Simulation time: 0 hr 32 min 5 sec) 
Heartbeat CPU 0 instructions: 318000000 cycles: 882119644 heartbeat IPC: 0.370804 cumulative IPC: 0.35959 (Simulation time: 0 hr 32 min 12 sec) 
Heartbeat CPU 0 instructions: 319000000 cycles: 885066147 heartbeat IPC: 0.339385 cumulative IPC: 0.359523 (Simulation time: 0 hr 32 min 18 sec) 
Heartbeat CPU 0 instructions: 320000002 cycles: 887899644 heartbeat IPC: 0.352921 cumulative IPC: 0.359502 (Simulation time: 0 hr 32 min 23 sec) 
Heartbeat CPU 0 instructions: 321000002 cycles: 890433302 heartbeat IPC: 0.394686 cumulative IPC: 0.359602 (Simulation time: 0 hr 32 min 27 sec) 
Heartbeat CPU 0 instructions: 322000002 cycles: 893217062 heartbeat IPC: 0.359226 cumulative IPC: 0.359601 (Simulation time: 0 hr 32 min 31 sec) 
Heartbeat CPU 0 instructions: 323000000 cycles: 896222363 heartbeat IPC: 0.332745 cumulative IPC: 0.359511 (Simulation time: 0 hr 32 min 37 sec) 
Heartbeat CPU 0 instructions: 324000000 cycles: 898878901 heartbeat IPC: 0.37643 cumulative IPC: 0.359561 (Simulation time: 0 hr 32 min 44 sec) 
Heartbeat CPU 0 instructions: 325000002 cycles: 901793503 heartbeat IPC: 0.343101 cumulative IPC: 0.359507 (Simulation time: 0 hr 32 min 51 sec) 
Heartbeat CPU 0 instructions: 326000000 cycles: 904510112 heartbeat IPC: 0.368105 cumulative IPC: 0.359533 (Simulation time: 0 hr 32 min 58 sec) 
Heartbeat CPU 0 instructions: 327000002 cycles: 907406635 heartbeat IPC: 0.345242 cumulative IPC: 0.359488 (Simulation time: 0 hr 33 min 5 sec) 
Heartbeat CPU 0 instructions: 328000000 cycles: 910493252 heartbeat IPC: 0.323979 cumulative IPC: 0.359367 (Simulation time: 0 hr 33 min 13 sec) 
Heartbeat CPU 0 instructions: 329000003 cycles: 912876581 heartbeat IPC: 0.419582 cumulative IPC: 0.359524 (Simulation time: 0 hr 33 min 20 sec) 
Heartbeat CPU 0 instructions: 330000000 cycles: 915851798 heartbeat IPC: 0.336109 cumulative IPC: 0.359448 (Simulation time: 0 hr 33 min 27 sec) 
Heartbeat CPU 0 instructions: 331000000 cycles: 918610266 heartbeat IPC: 0.36252 cumulative IPC: 0.359458 (Simulation time: 0 hr 33 min 34 sec) 
Heartbeat CPU 0 instructions: 332000000 cycles: 921356028 heartbeat IPC: 0.364198 cumulative IPC: 0.359472 (Simulation time: 0 hr 33 min 42 sec) 
Heartbeat CPU 0 instructions: 333000003 cycles: 924077807 heartbeat IPC: 0.367408 cumulative IPC: 0.359495 (Simulation time: 0 hr 33 min 49 sec) 
Heartbeat CPU 0 instructions: 334000000 cycles: 926921182 heartbeat IPC: 0.351694 cumulative IPC: 0.359471 (Simulation time: 0 hr 33 min 56 sec) 
Heartbeat CPU 0 instructions: 335000000 cycles: 929945066 heartbeat IPC: 0.330701 cumulative IPC: 0.359378 (Simulation time: 0 hr 34 min 3 sec) 
Heartbeat CPU 0 instructions: 336000002 cycles: 932793360 heartbeat IPC: 0.351088 cumulative IPC: 0.359352 (Simulation time: 0 hr 34 min 10 sec) 
Heartbeat CPU 0 instructions: 337000001 cycles: 935538982 heartbeat IPC: 0.364216 cumulative IPC: 0.359367 (Simulation time: 0 hr 34 min 17 sec) 
Heartbeat CPU 0 instructions: 338000000 cycles: 938333835 heartbeat IPC: 0.3578 cumulative IPC: 0.359362 (Simulation time: 0 hr 34 min 24 sec) 
Heartbeat CPU 0 instructions: 339000001 cycles: 941207449 heartbeat IPC: 0.347994 cumulative IPC: 0.359327 (Simulation time: 0 hr 34 min 31 sec) 
Heartbeat CPU 0 instructions: 340000001 cycles: 944013377 heartbeat IPC: 0.356388 cumulative IPC: 0.359318 (Simulation time: 0 hr 34 min 38 sec) 
Heartbeat CPU 0 instructions: 341000000 cycles: 946702245 heartbeat IPC: 0.371903 cumulative IPC: 0.359354 (Simulation time: 0 hr 34 min 45 sec) 
Heartbeat CPU 0 instructions: 342000001 cycles: 949379393 heartbeat IPC: 0.373532 cumulative IPC: 0.359394 (Simulation time: 0 hr 34 min 52 sec) 
Heartbeat CPU 0 instructions: 343000002 cycles: 952138017 heartbeat IPC: 0.3625 cumulative IPC: 0.359403 (Simulation time: 0 hr 34 min 59 sec) 
Heartbeat CPU 0 instructions: 344000002 cycles: 955261858 heartbeat IPC: 0.320119 cumulative IPC: 0.359275 (Simulation time: 0 hr 35 min 6 sec) 
Heartbeat CPU 0 instructions: 345000002 cycles: 958285349 heartbeat IPC: 0.330743 cumulative IPC: 0.359185 (Simulation time: 0 hr 35 min 14 sec) 
Heartbeat CPU 0 instructions: 346000000 cycles: 960513334 heartbeat IPC: 0.448835 cumulative IPC: 0.359393 (Simulation time: 0 hr 35 min 20 sec) 
Heartbeat CPU 0 instructions: 347000001 cycles: 963489130 heartbeat IPC: 0.336045 cumulative IPC: 0.35932 (Simulation time: 0 hr 35 min 27 sec) 
Heartbeat CPU 0 instructions: 348000001 cycles: 966336366 heartbeat IPC: 0.351218 cumulative IPC: 0.359297 (Simulation time: 0 hr 35 min 34 sec) 
Heartbeat CPU 0 instructions: 349000002 cycles: 969130361 heartbeat IPC: 0.357911 cumulative IPC: 0.359293 (Simulation time: 0 hr 35 min 41 sec) 
Heartbeat CPU 0 instructions: 350000000 cycles: 972063607 heartbeat IPC: 0.340919 cumulative IPC: 0.359237 (Simulation time: 0 hr 35 min 48 sec) 
Heartbeat CPU 0 instructions: 351000002 cycles: 974912760 heartbeat IPC: 0.350982 cumulative IPC: 0.359213 (Simulation time: 0 hr 35 min 56 sec) 
Heartbeat CPU 0 instructions: 352000000 cycles: 977684685 heartbeat IPC: 0.360759 cumulative IPC: 0.359217 (Simulation time: 0 hr 36 min 3 sec) 
Heartbeat CPU 0 instructions: 353000003 cycles: 980567521 heartbeat IPC: 0.346882 cumulative IPC: 0.359181 (Simulation time: 0 hr 36 min 10 sec) 
Heartbeat CPU 0 instructions: 354000002 cycles: 983421131 heartbeat IPC: 0.350433 cumulative IPC: 0.359156 (Simulation time: 0 hr 36 min 17 sec) 
Heartbeat CPU 0 instructions: 355000001 cycles: 986233369 heartbeat IPC: 0.355588 cumulative IPC: 0.359145 (Simulation time: 0 hr 36 min 24 sec) 
Heartbeat CPU 0 instructions: 356000000 cycles: 988897167 heartbeat IPC: 0.375403 cumulative IPC: 0.359189 (Simulation time: 0 hr 36 min 31 sec) 
Heartbeat CPU 0 instructions: 357000002 cycles: 991804545 heartbeat IPC: 0.343953 cumulative IPC: 0.359145 (Simulation time: 0 hr 36 min 38 sec) 
Heartbeat CPU 0 instructions: 358000000 cycles: 994735146 heartbeat IPC: 0.341226 cumulative IPC: 0.359092 (Simulation time: 0 hr 36 min 43 sec) 
Heartbeat CPU 0 instructions: 359000000 cycles: 997402130 heartbeat IPC: 0.374955 cumulative IPC: 0.359134 (Simulation time: 0 hr 36 min 47 sec) 
Heartbeat CPU 0 instructions: 360000003 cycles: 1000064408 heartbeat IPC: 0.375619 cumulative IPC: 0.359178 (Simulation time: 0 hr 36 min 51 sec) 
Heartbeat CPU 0 instructions: 361000000 cycles: 1002909920 heartbeat IPC: 0.35143 cumulative IPC: 0.359156 (Simulation time: 0 hr 36 min 55 sec) 
Heartbeat CPU 0 instructions: 362000001 cycles: 1005640477 heartbeat IPC: 0.366226 cumulative IPC: 0.359175 (Simulation time: 0 hr 36 min 59 sec) 
Heartbeat CPU 0 instructions: 363000000 cycles: 1008519307 heartbeat IPC: 0.347363 cumulative IPC: 0.359142 (Simulation time: 0 hr 37 min 3 sec) 
Heartbeat CPU 0 instructions: 364000000 cycles: 1011110734 heartbeat IPC: 0.385888 cumulative IPC: 0.35921 (Simulation time: 0 hr 37 min 7 sec) 
Heartbeat CPU 0 instructions: 365000000 cycles: 1014015059 heartbeat IPC: 0.344314 cumulative IPC: 0.359168 (Simulation time: 0 hr 37 min 12 sec) 
Heartbeat CPU 0 instructions: 366000000 cycles: 1016782089 heartbeat IPC: 0.361398 cumulative IPC: 0.359174 (Simulation time: 0 hr 37 min 18 sec) 
Heartbeat CPU 0 instructions: 367000000 cycles: 1019547862 heartbeat IPC: 0.361563 cumulative IPC: 0.35918 (Simulation time: 0 hr 37 min 25 sec) 
Heartbeat CPU 0 instructions: 368000001 cycles: 1022304043 heartbeat IPC: 0.362821 cumulative IPC: 0.35919 (Simulation time: 0 hr 37 min 31 sec) 
Heartbeat CPU 0 instructions: 369000001 cycles: 1025105893 heartbeat IPC: 0.356907 cumulative IPC: 0.359184 (Simulation time: 0 hr 37 min 37 sec) 
Heartbeat CPU 0 instructions: 370000000 cycles: 1027900010 heartbeat IPC: 0.357894 cumulative IPC: 0.35918 (Simulation time: 0 hr 37 min 41 sec) 
Heartbeat CPU 0 instructions: 371000000 cycles: 1030735657 heartbeat IPC: 0.352653 cumulative IPC: 0.359162 (Simulation time: 0 hr 37 min 45 sec) 
Heartbeat CPU 0 instructions: 372000003 cycles: 1033569418 heartbeat IPC: 0.352889 cumulative IPC: 0.359145 (Simulation time: 0 hr 37 min 50 sec) 
Heartbeat CPU 0 instructions: 373000000 cycles: 1036344448 heartbeat IPC: 0.360355 cumulative IPC: 0.359148 (Simulation time: 0 hr 37 min 56 sec) 
Heartbeat CPU 0 instructions: 374000000 cycles: 1039161494 heartbeat IPC: 0.354982 cumulative IPC: 0.359137 (Simulation time: 0 hr 38 min 4 sec) 
Heartbeat CPU 0 instructions: 375000000 cycles: 1041805850 heartbeat IPC: 0.378164 cumulative IPC: 0.359185 (Simulation time: 0 hr 38 min 10 sec) 
Heartbeat CPU 0 instructions: 376000002 cycles: 1044424966 heartbeat IPC: 0.381809 cumulative IPC: 0.359242 (Simulation time: 0 hr 38 min 17 sec) 
Heartbeat CPU 0 instructions: 377000000 cycles: 1047295143 heartbeat IPC: 0.34841 cumulative IPC: 0.359212 (Simulation time: 0 hr 38 min 24 sec) 
Heartbeat CPU 0 instructions: 378000000 cycles: 1050174648 heartbeat IPC: 0.347282 cumulative IPC: 0.35918 (Simulation time: 0 hr 38 min 31 sec) 
Heartbeat CPU 0 instructions: 379000001 cycles: 1052948279 heartbeat IPC: 0.360539 cumulative IPC: 0.359183 (Simulation time: 0 hr 38 min 38 sec) 
Heartbeat CPU 0 instructions: 380000003 cycles: 1055858239 heartbeat IPC: 0.343648 cumulative IPC: 0.35914 (Simulation time: 0 hr 38 min 45 sec) 
Heartbeat CPU 0 instructions: 381000001 cycles: 1058376664 heartbeat IPC: 0.397073 cumulative IPC: 0.359231 (Simulation time: 0 hr 38 min 51 sec) 
Heartbeat CPU 0 instructions: 382000001 cycles: 1061211729 heartbeat IPC: 0.352726 cumulative IPC: 0.359213 (Simulation time: 0 hr 38 min 58 sec) 
Heartbeat CPU 0 instructions: 383000000 cycles: 1063829186 heartbeat IPC: 0.38205 cumulative IPC: 0.359269 (Simulation time: 0 hr 39 min 5 sec) 
Heartbeat CPU 0 instructions: 384000000 cycles: 1066765304 heartbeat IPC: 0.340586 cumulative IPC: 0.359218 (Simulation time: 0 hr 39 min 12 sec) 
Heartbeat CPU 0 instructions: 385000000 cycles: 1069457146 heartbeat IPC: 0.371493 cumulative IPC: 0.359249 (Simulation time: 0 hr 39 min 18 sec) 
Heartbeat CPU 0 instructions: 386000000 cycles: 1072275768 heartbeat IPC: 0.354783 cumulative IPC: 0.359237 (Simulation time: 0 hr 39 min 25 sec) 
Heartbeat CPU 0 instructions: 387000002 cycles: 1075110736 heartbeat IPC: 0.352738 cumulative IPC: 0.35922 (Simulation time: 0 hr 39 min 32 sec) 
Heartbeat CPU 0 instructions: 388000000 cycles: 1077783019 heartbeat IPC: 0.374211 cumulative IPC: 0.359257 (Simulation time: 0 hr 39 min 39 sec) 
Heartbeat CPU 0 instructions: 389000002 cycles: 1080485564 heartbeat IPC: 0.370022 cumulative IPC: 0.359284 (Simulation time: 0 hr 39 min 46 sec) 
Heartbeat CPU 0 instructions: 390000003 cycles: 1083301864 heartbeat IPC: 0.355076 cumulative IPC: 0.359273 (Simulation time: 0 hr 39 min 53 sec) 
Heartbeat CPU 0 instructions: 391000003 cycles: 1086127725 heartbeat IPC: 0.353874 cumulative IPC: 0.359259 (Simulation time: 0 hr 40 min 0 sec) 
Heartbeat CPU 0 instructions: 392000000 cycles: 1088884416 heartbeat IPC: 0.362753 cumulative IPC: 0.359268 (Simulation time: 0 hr 40 min 6 sec) 
Heartbeat CPU 0 instructions: 393000000 cycles: 1091720121 heartbeat IPC: 0.352646 cumulative IPC: 0.359251 (Simulation time: 0 hr 40 min 13 sec) 
Heartbeat CPU 0 instructions: 394000002 cycles: 1094459909 heartbeat IPC: 0.364992 cumulative IPC: 0.359265 (Simulation time: 0 hr 40 min 20 sec) 
Heartbeat CPU 0 instructions: 395000001 cycles: 1097512458 heartbeat IPC: 0.327595 cumulative IPC: 0.359177 (Simulation time: 0 hr 40 min 27 sec) 
Heartbeat CPU 0 instructions: 396000000 cycles: 1100400044 heartbeat IPC: 0.34631 cumulative IPC: 0.359143 (Simulation time: 0 hr 40 min 34 sec) 
Heartbeat CPU 0 instructions: 397000000 cycles: 1103128739 heartbeat IPC: 0.366476 cumulative IPC: 0.359161 (Simulation time: 0 hr 40 min 42 sec) 
Heartbeat CPU 0 instructions: 398000000 cycles: 1105935313 heartbeat IPC: 0.356306 cumulative IPC: 0.359154 (Simulation time: 0 hr 40 min 49 sec) 
Heartbeat CPU 0 instructions: 399000001 cycles: 1108808372 heartbeat IPC: 0.348061 cumulative IPC: 0.359125 (Simulation time: 0 hr 40 min 56 sec) 
Heartbeat CPU 0 instructions: 400000000 cycles: 1111494594 heartbeat IPC: 0.37227 cumulative IPC: 0.359157 (Simulation time: 0 hr 41 min 3 sec) 
Heartbeat CPU 0 instructions: 401000001 cycles: 1114212423 heartbeat IPC: 0.367941 cumulative IPC: 0.359179 (Simulation time: 0 hr 41 min 10 sec) 
Heartbeat CPU 0 instructions: 402000003 cycles: 1116950764 heartbeat IPC: 0.365185 cumulative IPC: 0.359193 (Simulation time: 0 hr 41 min 16 sec) 
Heartbeat CPU 0 instructions: 403000000 cycles: 1119859784 heartbeat IPC: 0.343757 cumulative IPC: 0.359153 (Simulation time: 0 hr 41 min 23 sec) 
Heartbeat CPU 0 instructions: 404000002 cycles: 1122691692 heartbeat IPC: 0.35312 cumulative IPC: 0.359138 (Simulation time: 0 hr 41 min 30 sec) 
Heartbeat CPU 0 instructions: 405000002 cycles: 1125509219 heartbeat IPC: 0.354921 cumulative IPC: 0.359127 (Simulation time: 0 hr 41 min 37 sec) 
Heartbeat CPU 0 instructions: 406000000 cycles: 1128148704 heartbeat IPC: 0.378861 cumulative IPC: 0.359174 (Simulation time: 0 hr 41 min 43 sec) 
Heartbeat CPU 0 instructions: 407000000 cycles: 1131088534 heartbeat IPC: 0.340156 cumulative IPC: 0.359124 (Simulation time: 0 hr 41 min 50 sec) 
Heartbeat CPU 0 instructions: 408000001 cycles: 1133911043 heartbeat IPC: 0.354295 cumulative IPC: 0.359112 (Simulation time: 0 hr 41 min 57 sec) 
Heartbeat CPU 0 instructions: 409000003 cycles: 1136646689 heartbeat IPC: 0.365545 cumulative IPC: 0.359128 (Simulation time: 0 hr 42 min 4 sec) 
Heartbeat CPU 0 instructions: 410000001 cycles: 1139337620 heartbeat IPC: 0.371618 cumulative IPC: 0.359157 (Simulation time: 0 hr 42 min 10 sec) 
Heartbeat CPU 0 instructions: 411000003 cycles: 1142250961 heartbeat IPC: 0.343249 cumulative IPC: 0.359117 (Simulation time: 0 hr 42 min 17 sec) 
Heartbeat CPU 0 instructions: 412000000 cycles: 1145143464 heartbeat IPC: 0.34572 cumulative IPC: 0.359083 (Simulation time: 0 hr 42 min 24 sec) 
Heartbeat CPU 0 instructions: 413000003 cycles: 1147916179 heartbeat IPC: 0.360658 cumulative IPC: 0.359087 (Simulation time: 0 hr 42 min 31 sec) 
Heartbeat CPU 0 instructions: 414000000 cycles: 1150298161 heartbeat IPC: 0.419817 cumulative IPC: 0.359212 (Simulation time: 0 hr 42 min 37 sec) 
Heartbeat CPU 0 instructions: 415000001 cycles: 1153090705 heartbeat IPC: 0.358097 cumulative IPC: 0.35921 (Simulation time: 0 hr 42 min 41 sec) 
Heartbeat CPU 0 instructions: 416000003 cycles: 1155905849 heartbeat IPC: 0.355222 cumulative IPC: 0.3592 (Simulation time: 0 hr 42 min 45 sec) 
Heartbeat CPU 0 instructions: 417000001 cycles: 1158722061 heartbeat IPC: 0.355086 cumulative IPC: 0.35919 (Simulation time: 0 hr 42 min 51 sec) 
Heartbeat CPU 0 instructions: 418000000 cycles: 1161487856 heartbeat IPC: 0.361559 cumulative IPC: 0.359196 (Simulation time: 0 hr 42 min 58 sec) 
Heartbeat CPU 0 instructions: 419000002 cycles: 1164243592 heartbeat IPC: 0.36288 cumulative IPC: 0.359204 (Simulation time: 0 hr 43 min 2 sec) 
Heartbeat CPU 0 instructions: 420000000 cycles: 1167048837 heartbeat IPC: 0.356474 cumulative IPC: 0.359198 (Simulation time: 0 hr 43 min 7 sec) 
Heartbeat CPU 0 instructions: 421000003 cycles: 1169868305 heartbeat IPC: 0.354678 cumulative IPC: 0.359187 (Simulation time: 0 hr 43 min 12 sec) 
Heartbeat CPU 0 instructions: 422000000 cycles: 1172595450 heartbeat IPC: 0.366683 cumulative IPC: 0.359204 (Simulation time: 0 hr 43 min 16 sec) 
Heartbeat CPU 0 instructions: 423000001 cycles: 1175338096 heartbeat IPC: 0.364612 cumulative IPC: 0.359217 (Simulation time: 0 hr 43 min 20 sec) 
Heartbeat CPU 0 instructions: 424000003 cycles: 1178393608 heartbeat IPC: 0.327278 cumulative IPC: 0.359134 (Simulation time: 0 hr 43 min 28 sec) 
Heartbeat CPU 0 instructions: 425000003 cycles: 1181123887 heartbeat IPC: 0.366263 cumulative IPC: 0.359151 (Simulation time: 0 hr 43 min 35 sec) 
Heartbeat CPU 0 instructions: 426000002 cycles: 1184043721 heartbeat IPC: 0.342485 cumulative IPC: 0.359109 (Simulation time: 0 hr 43 min 42 sec) 
Heartbeat CPU 0 instructions: 427000003 cycles: 1186697581 heartbeat IPC: 0.37681 cumulative IPC: 0.359149 (Simulation time: 0 hr 43 min 48 sec) 
Heartbeat CPU 0 instructions: 428000000 cycles: 1189707563 heartbeat IPC: 0.332227 cumulative IPC: 0.359081 (Simulation time: 0 hr 43 min 54 sec) 
Heartbeat CPU 0 instructions: 429000000 cycles: 1192421918 heartbeat IPC: 0.368412 cumulative IPC: 0.359102 (Simulation time: 0 hr 44 min 1 sec) 
Heartbeat CPU 0 instructions: 430000000 cycles: 1195182740 heartbeat IPC: 0.362211 cumulative IPC: 0.359109 (Simulation time: 0 hr 44 min 9 sec) 
Heartbeat CPU 0 instructions: 431000001 cycles: 1197955851 heartbeat IPC: 0.360606 cumulative IPC: 0.359113 (Simulation time: 0 hr 44 min 15 sec) 
Heartbeat CPU 0 instructions: 432000003 cycles: 1200724138 heartbeat IPC: 0.361235 cumulative IPC: 0.359118 (Simulation time: 0 hr 44 min 22 sec) 
Heartbeat CPU 0 instructions: 433000001 cycles: 1203486416 heartbeat IPC: 0.362019 cumulative IPC: 0.359124 (Simulation time: 0 hr 44 min 28 sec) 
Heartbeat CPU 0 instructions: 434000002 cycles: 1206244861 heartbeat IPC: 0.362523 cumulative IPC: 0.359132 (Simulation time: 0 hr 44 min 32 sec) 
Heartbeat CPU 0 instructions: 435000002 cycles: 1209014598 heartbeat IPC: 0.361045 cumulative IPC: 0.359136 (Simulation time: 0 hr 44 min 37 sec) 
Heartbeat CPU 0 instructions: 436000000 cycles: 1211724207 heartbeat IPC: 0.369056 cumulative IPC: 0.359159 (Simulation time: 0 hr 44 min 43 sec) 
Heartbeat CPU 0 instructions: 437000002 cycles: 1214616816 heartbeat IPC: 0.345709 cumulative IPC: 0.359127 (Simulation time: 0 hr 44 min 50 sec) 
Heartbeat CPU 0 instructions: 438000000 cycles: 1217443111 heartbeat IPC: 0.353819 cumulative IPC: 0.359114 (Simulation time: 0 hr 44 min 57 sec) 
Heartbeat CPU 0 instructions: 439000003 cycles: 1219990806 heartbeat IPC: 0.392513 cumulative IPC: 0.359184 (Simulation time: 0 hr 45 min 4 sec) 
Heartbeat CPU 0 instructions: 440000000 cycles: 1222788543 heartbeat IPC: 0.357431 cumulative IPC: 0.35918 (Simulation time: 0 hr 45 min 11 sec) 
Heartbeat CPU 0 instructions: 441000002 cycles: 1225617182 heartbeat IPC: 0.353528 cumulative IPC: 0.359167 (Simulation time: 0 hr 45 min 18 sec) 
Heartbeat CPU 0 instructions: 442000001 cycles: 1228351282 heartbeat IPC: 0.365751 cumulative IPC: 0.359182 (Simulation time: 0 hr 45 min 24 sec) 
Heartbeat CPU 0 instructions: 443000001 cycles: 1231122495 heartbeat IPC: 0.360853 cumulative IPC: 0.359185 (Simulation time: 0 hr 45 min 31 sec) 
Heartbeat CPU 0 instructions: 444000003 cycles: 1234076390 heartbeat IPC: 0.338537 cumulative IPC: 0.359136 (Simulation time: 0 hr 45 min 38 sec) 
Heartbeat CPU 0 instructions: 445000000 cycles: 1236898542 heartbeat IPC: 0.354338 cumulative IPC: 0.359125 (Simulation time: 0 hr 45 min 45 sec) 
Heartbeat CPU 0 instructions: 446000000 cycles: 1239621888 heartbeat IPC: 0.367195 cumulative IPC: 0.359143 (Simulation time: 0 hr 45 min 49 sec) 
Heartbeat CPU 0 instructions: 447000000 cycles: 1242417852 heartbeat IPC: 0.357658 cumulative IPC: 0.359139 (Simulation time: 0 hr 45 min 56 sec) 
Heartbeat CPU 0 instructions: 448000000 cycles: 1245213300 heartbeat IPC: 0.357724 cumulative IPC: 0.359136 (Simulation time: 0 hr 46 min 3 sec) 
Heartbeat CPU 0 instructions: 449000000 cycles: 1248039392 heartbeat IPC: 0.353846 cumulative IPC: 0.359124 (Simulation time: 0 hr 46 min 10 sec) 
Heartbeat CPU 0 instructions: 450000001 cycles: 1250758294 heartbeat IPC: 0.367796 cumulative IPC: 0.359143 (Simulation time: 0 hr 46 min 16 sec) 

Warmup complete CPU 0 instructions: 450000001 cycles: 1250758294 (Simulation time: 0 hr 46 min 16 sec) 

Heartbeat CPU 0 instructions: 451000000 cycles: 1253541193 heartbeat IPC: 0.359337 cumulative IPC: 0.359337 (Simulation time: 0 hr 46 min 23 sec) 
Heartbeat CPU 0 instructions: 452000000 cycles: 1256090116 heartbeat IPC: 0.392323 cumulative IPC: 0.375106 (Simulation time: 0 hr 46 min 30 sec) 
Heartbeat CPU 0 instructions: 453000000 cycles: 1258922831 heartbeat IPC: 0.353018 cumulative IPC: 0.367443 (Simulation time: 0 hr 46 min 35 sec) 
Heartbeat CPU 0 instructions: 454000001 cycles: 1261464899 heartbeat IPC: 0.393381 cumulative IPC: 0.373601 (Simulation time: 0 hr 46 min 42 sec) 
Heartbeat CPU 0 instructions: 455000000 cycles: 1264253662 heartbeat IPC: 0.358582 cumulative IPC: 0.370497 (Simulation time: 0 hr 46 min 49 sec) 
Heartbeat CPU 0 instructions: 456000003 cycles: 1266834767 heartbeat IPC: 0.387432 cumulative IPC: 0.373216 (Simulation time: 0 hr 46 min 53 sec) 
Heartbeat CPU 0 instructions: 457000001 cycles: 1269547957 heartbeat IPC: 0.368569 cumulative IPC: 0.372545 (Simulation time: 0 hr 46 min 58 sec) 
Heartbeat CPU 0 instructions: 458000002 cycles: 1272456320 heartbeat IPC: 0.343836 cumulative IPC: 0.368697 (Simulation time: 0 hr 47 min 2 sec) 
Heartbeat CPU 0 instructions: 459000000 cycles: 1275308744 heartbeat IPC: 0.350578 cumulative IPC: 0.366592 (Simulation time: 0 hr 47 min 6 sec) 
Heartbeat CPU 0 instructions: 460000002 cycles: 1278034660 heartbeat IPC: 0.36685 cumulative IPC: 0.366618 (Simulation time: 0 hr 47 min 10 sec) 
Heartbeat CPU 0 instructions: 461000000 cycles: 1280738419 heartbeat IPC: 0.369855 cumulative IPC: 0.36691 (Simulation time: 0 hr 47 min 15 sec) 
Heartbeat CPU 0 instructions: 462000000 cycles: 1283587565 heartbeat IPC: 0.350982 cumulative IPC: 0.365527 (Simulation time: 0 hr 47 min 19 sec) 
Heartbeat CPU 0 instructions: 463000002 cycles: 1286395817 heartbeat IPC: 0.356094 cumulative IPC: 0.364784 (Simulation time: 0 hr 47 min 23 sec) 
Heartbeat CPU 0 instructions: 464000002 cycles: 1289227719 heartbeat IPC: 0.35312 cumulative IPC: 0.363925 (Simulation time: 0 hr 47 min 28 sec) 
Heartbeat CPU 0 instructions: 465000000 cycles: 1292016785 heartbeat IPC: 0.358542 cumulative IPC: 0.363562 (Simulation time: 0 hr 47 min 32 sec) 
Heartbeat CPU 0 instructions: 466000000 cycles: 1294926290 heartbeat IPC: 0.343701 cumulative IPC: 0.362253 (Simulation time: 0 hr 47 min 36 sec) 
Heartbeat CPU 0 instructions: 467000001 cycles: 1297603818 heartbeat IPC: 0.373479 cumulative IPC: 0.362895 (Simulation time: 0 hr 47 min 40 sec) 
Heartbeat CPU 0 instructions: 468000002 cycles: 1300306067 heartbeat IPC: 0.370063 cumulative IPC: 0.363286 (Simulation time: 0 hr 47 min 44 sec) 
Heartbeat CPU 0 instructions: 469000001 cycles: 1303134277 heartbeat IPC: 0.35358 cumulative IPC: 0.362762 (Simulation time: 0 hr 47 min 49 sec) 
Heartbeat CPU 0 instructions: 470000002 cycles: 1305886292 heartbeat IPC: 0.36337 cumulative IPC: 0.362792 (Simulation time: 0 hr 47 min 56 sec) 
Heartbeat CPU 0 instructions: 471000002 cycles: 1308593665 heartbeat IPC: 0.369362 cumulative IPC: 0.3631 (Simulation time: 0 hr 48 min 4 sec) 
Heartbeat CPU 0 instructions: 472000000 cycles: 1311597561 heartbeat IPC: 0.3329 cumulative IPC: 0.361609 (Simulation time: 0 hr 48 min 11 sec) 
Heartbeat CPU 0 instructions: 473000000 cycles: 1313849889 heartbeat IPC: 0.443985 cumulative IPC: 0.364549 (Simulation time: 0 hr 48 min 18 sec) 
Heartbeat CPU 0 instructions: 474000000 cycles: 1316606839 heartbeat IPC: 0.36272 cumulative IPC: 0.364473 (Simulation time: 0 hr 48 min 25 sec) 
Heartbeat CPU 0 instructions: 475000000 cycles: 1319429438 heartbeat IPC: 0.354283 cumulative IPC: 0.364054 (Simulation time: 0 hr 48 min 31 sec) 
Heartbeat CPU 0 instructions: 476000002 cycles: 1322295710 heartbeat IPC: 0.348886 cumulative IPC: 0.363446 (Simulation time: 0 hr 48 min 35 sec) 
Heartbeat CPU 0 instructions: 477000001 cycles: 1325133146 heartbeat IPC: 0.35243 cumulative IPC: 0.363026 (Simulation time: 0 hr 48 min 39 sec) 
Heartbeat CPU 0 instructions: 478000000 cycles: 1327736349 heartbeat IPC: 0.384142 cumulative IPC: 0.36374 (Simulation time: 0 hr 48 min 46 sec) 
Heartbeat CPU 0 instructions: 479000000 cycles: 1330819830 heartbeat IPC: 0.324309 cumulative IPC: 0.362221 (Simulation time: 0 hr 48 min 53 sec) 
Heartbeat CPU 0 instructions: 480000000 cycles: 1333647793 heartbeat IPC: 0.353611 cumulative IPC: 0.361928 (Simulation time: 0 hr 48 min 58 sec) 
Heartbeat CPU 0 instructions: 481000000 cycles: 1336400899 heartbeat IPC: 0.363226 cumulative IPC: 0.361969 (Simulation time: 0 hr 49 min 2 sec) 
Heartbeat CPU 0 instructions: 482000002 cycles: 1339142899 heartbeat IPC: 0.364698 cumulative IPC: 0.362054 (Simulation time: 0 hr 49 min 6 sec) 
Heartbeat CPU 0 instructions: 483000000 cycles: 1341898828 heartbeat IPC: 0.362853 cumulative IPC: 0.362078 (Simulation time: 0 hr 49 min 10 sec) 
Heartbeat CPU 0 instructions: 484000000 cycles: 1344741361 heartbeat IPC: 0.351799 cumulative IPC: 0.361767 (Simulation time: 0 hr 49 min 15 sec) 
Heartbeat CPU 0 instructions: 485000002 cycles: 1347644204 heartbeat IPC: 0.344491 cumulative IPC: 0.36125 (Simulation time: 0 hr 49 min 20 sec) 
Heartbeat CPU 0 instructions: 486000001 cycles: 1350315857 heartbeat IPC: 0.3743 cumulative IPC: 0.3616 (Simulation time: 0 hr 49 min 27 sec) 
Heartbeat CPU 0 instructions: 487000003 cycles: 1353216791 heartbeat IPC: 0.344717 cumulative IPC: 0.361122 (Simulation time: 0 hr 49 min 33 sec) 
Heartbeat CPU 0 instructions: 488000000 cycles: 1355930786 heartbeat IPC: 0.368459 cumulative IPC: 0.361311 (Simulation time: 0 hr 49 min 40 sec) 
Heartbeat CPU 0 instructions: 489000002 cycles: 1358529242 heartbeat IPC: 0.384845 cumulative IPC: 0.361879 (Simulation time: 0 hr 49 min 47 sec) 
Heartbeat CPU 0 instructions: 490000000 cycles: 1361368241 heartbeat IPC: 0.352236 cumulative IPC: 0.361631 (Simulation time: 0 hr 49 min 53 sec) 
Heartbeat CPU 0 instructions: 491000002 cycles: 1364147617 heartbeat IPC: 0.359794 cumulative IPC: 0.361586 (Simulation time: 0 hr 50 min 0 sec) 
Heartbeat CPU 0 instructions: 492000000 cycles: 1366888450 heartbeat IPC: 0.364852 cumulative IPC: 0.361663 (Simulation time: 0 hr 50 min 7 sec) 
Heartbeat CPU 0 instructions: 493000002 cycles: 1369682728 heartbeat IPC: 0.357875 cumulative IPC: 0.361574 (Simulation time: 0 hr 50 min 13 sec) 
Heartbeat CPU 0 instructions: 494000000 cycles: 1372502206 heartbeat IPC: 0.354675 cumulative IPC: 0.361414 (Simulation time: 0 hr 50 min 20 sec) 
Heartbeat CPU 0 instructions: 495000000 cycles: 1375171108 heartbeat IPC: 0.374686 cumulative IPC: 0.361699 (Simulation time: 0 hr 50 min 27 sec) 
Heartbeat CPU 0 instructions: 496000001 cycles: 1378052837 heartbeat IPC: 0.347014 cumulative IPC: 0.361367 (Simulation time: 0 hr 50 min 33 sec) 
Heartbeat CPU 0 instructions: 497000001 cycles: 1380923591 heartbeat IPC: 0.348341 cumulative IPC: 0.361079 (Simulation time: 0 hr 50 min 40 sec) 
Heartbeat CPU 0 instructions: 498000001 cycles: 1383563377 heartbeat IPC: 0.378819 cumulative IPC: 0.361432 (Simulation time: 0 hr 50 min 47 sec) 
Heartbeat CPU 0 instructions: 499000001 cycles: 1386335719 heartbeat IPC: 0.360706 cumulative IPC: 0.361417 (Simulation time: 0 hr 50 min 54 sec) 
Heartbeat CPU 0 instructions: 500000003 cycles: 1388897912 heartbeat IPC: 0.390291 cumulative IPC: 0.361953 (Simulation time: 0 hr 51 min 1 sec) 
Heartbeat CPU 0 instructions: 501000001 cycles: 1391731175 heartbeat IPC: 0.352949 cumulative IPC: 0.361772 (Simulation time: 0 hr 51 min 8 sec) 
Heartbeat CPU 0 instructions: 502000001 cycles: 1394386313 heartbeat IPC: 0.376628 cumulative IPC: 0.362046 (Simulation time: 0 hr 51 min 15 sec) 
Heartbeat CPU 0 instructions: 503000002 cycles: 1397174585 heartbeat IPC: 0.358645 cumulative IPC: 0.361982 (Simulation time: 0 hr 51 min 19 sec) 
Heartbeat CPU 0 instructions: 504000000 cycles: 1400032784 heartbeat IPC: 0.34987 cumulative IPC: 0.36175 (Simulation time: 0 hr 51 min 26 sec) 
Heartbeat CPU 0 instructions: 505000003 cycles: 1402866791 heartbeat IPC: 0.352858 cumulative IPC: 0.361584 (Simulation time: 0 hr 51 min 30 sec) 
Heartbeat CPU 0 instructions: 506000000 cycles: 1405455940 heartbeat IPC: 0.386226 cumulative IPC: 0.361996 (Simulation time: 0 hr 51 min 34 sec) 
Heartbeat CPU 0 instructions: 507000000 cycles: 1408193923 heartbeat IPC: 0.365232 cumulative IPC: 0.362053 (Simulation time: 0 hr 51 min 38 sec) 
Heartbeat CPU 0 instructions: 508000001 cycles: 1410949515 heartbeat IPC: 0.362899 cumulative IPC: 0.362067 (Simulation time: 0 hr 51 min 44 sec) 
Heartbeat CPU 0 instructions: 509000001 cycles: 1413789516 heartbeat IPC: 0.352113 cumulative IPC: 0.361894 (Simulation time: 0 hr 51 min 51 sec) 
Heartbeat CPU 0 instructions: 510000003 cycles: 1416537974 heartbeat IPC: 0.363841 cumulative IPC: 0.361926 (Simulation time: 0 hr 51 min 57 sec) 
Heartbeat CPU 0 instructions: 511000000 cycles: 1419091410 heartbeat IPC: 0.391628 cumulative IPC: 0.362377 (Simulation time: 0 hr 52 min 4 sec) 
Heartbeat CPU 0 instructions: 512000001 cycles: 1421745416 heartbeat IPC: 0.376789 cumulative IPC: 0.3626 (Simulation time: 0 hr 52 min 11 sec) 
Heartbeat CPU 0 instructions: 513000000 cycles: 1424421221 heartbeat IPC: 0.373719 cumulative IPC: 0.362772 (Simulation time: 0 hr 52 min 18 sec) 
Heartbeat CPU 0 instructions: 514000003 cycles: 1427135815 heartbeat IPC: 0.36838 cumulative IPC: 0.362858 (Simulation time: 0 hr 52 min 22 sec) 
Heartbeat CPU 0 instructions: 515000001 cycles: 1429918477 heartbeat IPC: 0.359367 cumulative IPC: 0.362804 (Simulation time: 0 hr 52 min 27 sec) 
Heartbeat CPU 0 instructions: 516000001 cycles: 1432778739 heartbeat IPC: 0.349618 cumulative IPC: 0.362597 (Simulation time: 0 hr 52 min 34 sec) 
Heartbeat CPU 0 instructions: 517000000 cycles: 1435350294 heartbeat IPC: 0.388869 cumulative IPC: 0.362963 (Simulation time: 0 hr 52 min 41 sec) 
Heartbeat CPU 0 instructions: 518000000 cycles: 1438276460 heartbeat IPC: 0.341744 cumulative IPC: 0.362632 (Simulation time: 0 hr 52 min 48 sec) 
Heartbeat CPU 0 instructions: 519000002 cycles: 1441097993 heartbeat IPC: 0.354418 cumulative IPC: 0.36251 (Simulation time: 0 hr 52 min 54 sec) 
Heartbeat CPU 0 instructions: 520000001 cycles: 1443983733 heartbeat IPC: 0.346531 cumulative IPC: 0.362271 (Simulation time: 0 hr 53 min 1 sec) 
Heartbeat CPU 0 instructions: 521000002 cycles: 1446681176 heartbeat IPC: 0.370722 cumulative IPC: 0.362387 (Simulation time: 0 hr 53 min 8 sec) 
Heartbeat CPU 0 instructions: 522000000 cycles: 1449349441 heartbeat IPC: 0.374775 cumulative IPC: 0.362554 (Simulation time: 0 hr 53 min 14 sec) 
Heartbeat CPU 0 instructions: 523000000 cycles: 1452199866 heartbeat IPC: 0.350825 cumulative IPC: 0.362388 (Simulation time: 0 hr 53 min 20 sec) 
Heartbeat CPU 0 instructions: 524000002 cycles: 1454996915 heartbeat IPC: 0.35752 cumulative IPC: 0.362321 (Simulation time: 0 hr 53 min 26 sec) 
Heartbeat CPU 0 instructions: 525000001 cycles: 1457775679 heartbeat IPC: 0.359872 cumulative IPC: 0.362288 (Simulation time: 0 hr 53 min 30 sec) 
Heartbeat CPU 0 instructions: 526000002 cycles: 1460542691 heartbeat IPC: 0.361401 cumulative IPC: 0.362277 (Simulation time: 0 hr 53 min 35 sec) 
Heartbeat CPU 0 instructions: 527000000 cycles: 1463297558 heartbeat IPC: 0.362993 cumulative IPC: 0.362286 (Simulation time: 0 hr 53 min 42 sec) 
Heartbeat CPU 0 instructions: 528000000 cycles: 1466054701 heartbeat IPC: 0.362694 cumulative IPC: 0.362291 (Simulation time: 0 hr 53 min 48 sec) 
Heartbeat CPU 0 instructions: 529000002 cycles: 1468911561 heartbeat IPC: 0.350035 cumulative IPC: 0.362131 (Simulation time: 0 hr 53 min 54 sec) 
Heartbeat CPU 0 instructions: 530000001 cycles: 1471939142 heartbeat IPC: 0.330296 cumulative IPC: 0.361695 (Simulation time: 0 hr 54 min 0 sec) 
Heartbeat CPU 0 instructions: 531000003 cycles: 1474138325 heartbeat IPC: 0.454715 cumulative IPC: 0.362611 (Simulation time: 0 hr 54 min 4 sec) 
Heartbeat CPU 0 instructions: 532000000 cycles: 1477025894 heartbeat IPC: 0.346311 cumulative IPC: 0.362403 (Simulation time: 0 hr 54 min 9 sec) 
Heartbeat CPU 0 instructions: 533000000 cycles: 1479746282 heartbeat IPC: 0.367595 cumulative IPC: 0.362464 (Simulation time: 0 hr 54 min 13 sec) 
Heartbeat CPU 0 instructions: 534000000 cycles: 1482655628 heartbeat IPC: 0.34372 cumulative IPC: 0.362229 (Simulation time: 0 hr 54 min 20 sec) 
Heartbeat CPU 0 instructions: 535000002 cycles: 1485421413 heartbeat IPC: 0.361562 cumulative IPC: 0.362221 (Simulation time: 0 hr 54 min 24 sec) 
Heartbeat CPU 0 instructions: 536000001 cycles: 1488101273 heartbeat IPC: 0.373153 cumulative IPC: 0.362345 (Simulation time: 0 hr 54 min 31 sec) 
Heartbeat CPU 0 instructions: 537000001 cycles: 1490706015 heartbeat IPC: 0.383915 cumulative IPC: 0.362579 (Simulation time: 0 hr 54 min 38 sec) 
Heartbeat CPU 0 instructions: 538000001 cycles: 1493649220 heartbeat IPC: 0.339766 cumulative IPC: 0.362303 (Simulation time: 0 hr 54 min 44 sec) 
Heartbeat CPU 0 instructions: 539000000 cycles: 1496421644 heartbeat IPC: 0.360695 cumulative IPC: 0.362284 (Simulation time: 0 hr 54 min 52 sec) 
Heartbeat CPU 0 instructions: 540000001 cycles: 1499119738 heartbeat IPC: 0.370632 cumulative IPC: 0.362375 (Simulation time: 0 hr 54 min 59 sec) 
Heartbeat CPU 0 instructions: 541000000 cycles: 1501883438 heartbeat IPC: 0.361833 cumulative IPC: 0.362369 (Simulation time: 0 hr 55 min 6 sec) 
Heartbeat CPU 0 instructions: 542000002 cycles: 1504778313 heartbeat IPC: 0.345439 cumulative IPC: 0.362176 (Simulation time: 0 hr 55 min 13 sec) 
Heartbeat CPU 0 instructions: 543000001 cycles: 1507367901 heartbeat IPC: 0.386161 cumulative IPC: 0.362418 (Simulation time: 0 hr 55 min 18 sec) 
Heartbeat CPU 0 instructions: 544000001 cycles: 1510340365 heartbeat IPC: 0.336421 cumulative IPC: 0.362121 (Simulation time: 0 hr 55 min 23 sec) 
Heartbeat CPU 0 instructions: 545000002 cycles: 1513054215 heartbeat IPC: 0.368481 cumulative IPC: 0.362186 (Simulation time: 0 hr 55 min 29 sec) 
[...]
Heartbeat CPU 0 instructions: 834000002 cycles: 2321202347 heartbeat IPC: 0.37717 cumulative IPC: 0.35873 (Simulation time: 1 hr 23 min 0 sec) 
Heartbeat CPU 0 instructions: 835000001 cycles: 2324078430 heartbeat IPC: 0.347695 cumulative IPC: 0.3587 (Simulation time: 1 hr 23 min 4 sec) 
Heartbeat CPU 0 instructions: 836000000 cycles: 2327034947 heartbeat IPC: 0.338235 cumulative IPC: 0.358644 (Simulation time: 1 hr 23 min 8 sec) 
Heartbeat CPU 0 instructions: 837000000 cycles: 2329635384 heartbeat IPC: 0.384551 cumulative IPC: 0.358706 (Simulation time: 1 hr 23 min 12 sec) 
Heartbeat CPU 0 instructions: 838000000 cycles: 2332342673 heartbeat IPC: 0.369373 cumulative IPC: 0.358733 (Simulation time: 1 hr 23 min 17 sec) 
Heartbeat CPU 0 instructions: 839000001 cycles: 2335181004 heartbeat IPC: 0.35232 cumulative IPC: 0.358716 (Simulation time: 1 hr 23 min 21 sec) 
Heartbeat CPU 0 instructions: 840000003 cycles: 2338385895 heartbeat IPC: 0.312024 cumulative IPC: 0.358579 (Simulation time: 1 hr 23 min 26 sec) 
Heartbeat CPU 0 instructions: 841000000 cycles: 2341071192 heartbeat IPC: 0.372397 cumulative IPC: 0.358613 (Simulation time: 1 hr 23 min 30 sec) 
Heartbeat CPU 0 instructions: 842000002 cycles: 2343935619 heartbeat IPC: 0.349111 cumulative IPC: 0.358588 (Simulation time: 1 hr 23 min 36 sec) 
Heartbeat CPU 0 instructions: 843000000 cycles: 2346820037 heartbeat IPC: 0.34669 cumulative IPC: 0.358556 (Simulation time: 1 hr 23 min 43 sec) 
Heartbeat CPU 0 instructions: 844000000 cycles: 2349640962 heartbeat IPC: 0.354494 cumulative IPC: 0.358546 (Simulation time: 1 hr 23 min 47 sec) 
Heartbeat CPU 0 instructions: 845000000 cycles: 2352515575 heartbeat IPC: 0.347873 cumulative IPC: 0.358518 (Simulation time: 1 hr 23 min 51 sec) 
Heartbeat CPU 0 instructions: 846000003 cycles: 2355311227 heartbeat IPC: 0.357699 cumulative IPC: 0.358516 (Simulation time: 1 hr 23 min 55 sec) 
Heartbeat CPU 0 instructions: 847000000 cycles: 2358120556 heartbeat IPC: 0.355956 cumulative IPC: 0.35851 (Simulation time: 1 hr 23 min 59 sec) 
Heartbeat CPU 0 instructions: 848000000 cycles: 2360929299 heartbeat IPC: 0.356031 cumulative IPC: 0.358503 (Simulation time: 1 hr 24 min 3 sec) 
Heartbeat CPU 0 instructions: 849000000 cycles: 2363703862 heartbeat IPC: 0.360417 cumulative IPC: 0.358508 (Simulation time: 1 hr 24 min 7 sec) 
Heartbeat CPU 0 instructions: 850000000 cycles: 2366613070 heartbeat IPC: 0.343736 cumulative IPC: 0.35847 (Simulation time: 1 hr 24 min 11 sec) 
Heartbeat CPU 0 instructions: 851000000 cycles: 2369432193 heartbeat IPC: 0.35472 cumulative IPC: 0.35846 (Simulation time: 1 hr 24 min 15 sec) 
Heartbeat CPU 0 instructions: 852000002 cycles: 2372226942 heartbeat IPC: 0.357815 cumulative IPC: 0.358459 (Simulation time: 1 hr 24 min 19 sec) 
Heartbeat CPU 0 instructions: 853000001 cycles: 2374935847 heartbeat IPC: 0.369152 cumulative IPC: 0.358484 (Simulation time: 1 hr 24 min 24 sec) 
Heartbeat CPU 0 instructions: 854000000 cycles: 2377860731 heartbeat IPC: 0.341894 cumulative IPC: 0.358441 (Simulation time: 1 hr 24 min 30 sec) 
Heartbeat CPU 0 instructions: 855000000 cycles: 2380659086 heartbeat IPC: 0.357353 cumulative IPC: 0.358439 (Simulation time: 1 hr 24 min 37 sec) 
Heartbeat CPU 0 instructions: 856000001 cycles: 2383536516 heartbeat IPC: 0.347533 cumulative IPC: 0.358411 (Simulation time: 1 hr 24 min 44 sec) 
Heartbeat CPU 0 instructions: 857000000 cycles: 2386279673 heartbeat IPC: 0.364543 cumulative IPC: 0.358426 (Simulation time: 1 hr 24 min 51 sec) 
Heartbeat CPU 0 instructions: 858000000 cycles: 2389188376 heartbeat IPC: 0.343796 cumulative IPC: 0.358388 (Simulation time: 1 hr 24 min 59 sec) 
Heartbeat CPU 0 instructions: 859000000 cycles: 2392016783 heartbeat IPC: 0.353556 cumulative IPC: 0.358376 (Simulation time: 1 hr 25 min 6 sec) 
Heartbeat CPU 0 instructions: 860000000 cycles: 2394845693 heartbeat IPC: 0.353493 cumulative IPC: 0.358364 (Simulation time: 1 hr 25 min 13 sec) 
Heartbeat CPU 0 instructions: 861000002 cycles: 2397561298 heartbeat IPC: 0.368243 cumulative IPC: 0.358388 (Simulation time: 1 hr 25 min 20 sec) 
Heartbeat CPU 0 instructions: 862000003 cycles: 2400645156 heartbeat IPC: 0.324269 cumulative IPC: 0.358296 (Simulation time: 1 hr 25 min 28 sec) 
Heartbeat CPU 0 instructions: 863000000 cycles: 2403502862 heartbeat IPC: 0.34993 cumulative IPC: 0.358275 (Simulation time: 1 hr 25 min 35 sec) 
Heartbeat CPU 0 instructions: 864000002 cycles: 2406317369 heartbeat IPC: 0.355303 cumulative IPC: 0.358268 (Simulation time: 1 hr 25 min 42 sec) 
Heartbeat CPU 0 instructions: 865000003 cycles: 2409175885 heartbeat IPC: 0.349832 cumulative IPC: 0.358247 (Simulation time: 1 hr 25 min 49 sec) 
Heartbeat CPU 0 instructions: 866000000 cycles: 2411990966 heartbeat IPC: 0.355229 cumulative IPC: 0.35824 (Simulation time: 1 hr 25 min 57 sec) 
Heartbeat CPU 0 instructions: 867000002 cycles: 2415091773 heartbeat IPC: 0.322497 cumulative IPC: 0.358145 (Simulation time: 1 hr 26 min 4 sec) 
Heartbeat CPU 0 instructions: 868000000 cycles: 2417760313 heartbeat IPC: 0.374736 cumulative IPC: 0.358183 (Simulation time: 1 hr 26 min 11 sec) 
Heartbeat CPU 0 instructions: 869000000 cycles: 2420533380 heartbeat IPC: 0.360612 cumulative IPC: 0.358189 (Simulation time: 1 hr 26 min 18 sec) 
Heartbeat CPU 0 instructions: 870000001 cycles: 2423514842 heartbeat IPC: 0.335406 cumulative IPC: 0.358131 (Simulation time: 1 hr 26 min 25 sec) 
Heartbeat CPU 0 instructions: 871000000 cycles: 2426239964 heartbeat IPC: 0.366956 cumulative IPC: 0.358151 (Simulation time: 1 hr 26 min 30 sec) 
Heartbeat CPU 0 instructions: 872000000 cycles: 2428975925 heartbeat IPC: 0.365502 cumulative IPC: 0.358168 (Simulation time: 1 hr 26 min 34 sec) 
Heartbeat CPU 0 instructions: 873000003 cycles: 2431811846 heartbeat IPC: 0.35262 cumulative IPC: 0.358155 (Simulation time: 1 hr 26 min 38 sec) 
Heartbeat CPU 0 instructions: 874000001 cycles: 2434519161 heartbeat IPC: 0.369369 cumulative IPC: 0.35818 (Simulation time: 1 hr 26 min 42 sec) 
Heartbeat CPU 0 instructions: 875000003 cycles: 2437431161 heartbeat IPC: 0.343407 cumulative IPC: 0.358144 (Simulation time: 1 hr 26 min 47 sec) 
Heartbeat CPU 0 instructions: 876000001 cycles: 2440104209 heartbeat IPC: 0.374104 cumulative IPC: 0.35818 (Simulation time: 1 hr 26 min 52 sec) 
Heartbeat CPU 0 instructions: 877000001 cycles: 2442707627 heartbeat IPC: 0.38411 cumulative IPC: 0.358237 (Simulation time: 1 hr 26 min 59 sec) 
Heartbeat CPU 0 instructions: 878000003 cycles: 2445546305 heartbeat IPC: 0.352277 cumulative IPC: 0.358223 (Simulation time: 1 hr 27 min 6 sec) 
Heartbeat CPU 0 instructions: 879000000 cycles: 2448315994 heartbeat IPC: 0.36105 cumulative IPC: 0.358229 (Simulation time: 1 hr 27 min 11 sec) 
Heartbeat CPU 0 instructions: 880000000 cycles: 2451245309 heartbeat IPC: 0.341377 cumulative IPC: 0.358188 (Simulation time: 1 hr 27 min 16 sec) 
Heartbeat CPU 0 instructions: 881000002 cycles: 2454089752 heartbeat IPC: 0.351563 cumulative IPC: 0.358172 (Simulation time: 1 hr 27 min 22 sec) 
Heartbeat CPU 0 instructions: 882000002 cycles: 2456943493 heartbeat IPC: 0.350417 cumulative IPC: 0.358154 (Simulation time: 1 hr 27 min 29 sec) 
Heartbeat CPU 0 instructions: 883000001 cycles: 2459521547 heartbeat IPC: 0.387889 cumulative IPC: 0.358217 (Simulation time: 1 hr 27 min 35 sec) 
Heartbeat CPU 0 instructions: 884000001 cycles: 2462894527 heartbeat IPC: 0.296474 cumulative IPC: 0.358046 (Simulation time: 1 hr 27 min 42 sec) 
Heartbeat CPU 0 instructions: 885000003 cycles: 2465467919 heartbeat IPC: 0.388593 cumulative IPC: 0.35811 (Simulation time: 1 hr 27 min 49 sec) 
Heartbeat CPU 0 instructions: 886000003 cycles: 2468590169 heartbeat IPC: 0.320282 cumulative IPC: 0.358013 (Simulation time: 1 hr 27 min 56 sec) 
Heartbeat CPU 0 instructions: 887000002 cycles: 2471280738 heartbeat IPC: 0.371668 cumulative IPC: 0.358043 (Simulation time: 1 hr 28 min 2 sec) 
Heartbeat CPU 0 instructions: 888000000 cycles: 2474043854 heartbeat IPC: 0.36191 cumulative IPC: 0.358052 (Simulation time: 1 hr 28 min 9 sec) 
Heartbeat CPU 0 instructions: 889000001 cycles: 2476661268 heartbeat IPC: 0.382057 cumulative IPC: 0.358103 (Simulation time: 1 hr 28 min 16 sec) 
Heartbeat CPU 0 instructions: 890000000 cycles: 2479441757 heartbeat IPC: 0.359649 cumulative IPC: 0.358107 (Simulation time: 1 hr 28 min 22 sec) 
Heartbeat CPU 0 instructions: 891000000 cycles: 2482335297 heartbeat IPC: 0.345597 cumulative IPC: 0.358077 (Simulation time: 1 hr 28 min 29 sec) 
Heartbeat CPU 0 instructions: 892000000 cycles: 2485098176 heartbeat IPC: 0.361941 cumulative IPC: 0.358086 (Simulation time: 1 hr 28 min 36 sec) 
Heartbeat CPU 0 instructions: 893000001 cycles: 2487892966 heartbeat IPC: 0.357809 cumulative IPC: 0.358086 (Simulation time: 1 hr 28 min 43 sec) 
Heartbeat CPU 0 instructions: 894000000 cycles: 2490718036 heartbeat IPC: 0.353973 cumulative IPC: 0.358076 (Simulation time: 1 hr 28 min 49 sec) 
Heartbeat CPU 0 instructions: 895000002 cycles: 2493425523 heartbeat IPC: 0.369347 cumulative IPC: 0.358101 (Simulation time: 1 hr 28 min 56 sec) 
Heartbeat CPU 0 instructions: 896000002 cycles: 2496228424 heartbeat IPC: 0.356773 cumulative IPC: 0.358098 (Simulation time: 1 hr 29 min 3 sec) 
Heartbeat CPU 0 instructions: 897000001 cycles: 2499029617 heartbeat IPC: 0.35699 cumulative IPC: 0.358095 (Simulation time: 1 hr 29 min 9 sec) 
Heartbeat CPU 0 instructions: 898000001 cycles: 2501765226 heartbeat IPC: 0.365549 cumulative IPC: 0.358112 (Simulation time: 1 hr 29 min 13 sec) 
Heartbeat CPU 0 instructions: 899000000 cycles: 2504647482 heartbeat IPC: 0.34695 cumulative IPC: 0.358086 (Simulation time: 1 hr 29 min 17 sec) 
Heartbeat CPU 0 instructions: 900000001 cycles: 2507438884 heartbeat IPC: 0.358243 cumulative IPC: 0.358086 (Simulation time: 1 hr 29 min 21 sec) 
Heartbeat CPU 0 instructions: 901000000 cycles: 2510092018 heartbeat IPC: 0.376912 cumulative IPC: 0.358126 (Simulation time: 1 hr 29 min 27 sec) 
Heartbeat CPU 0 instructions: 902000000 cycles: 2512963565 heartbeat IPC: 0.348244 cumulative IPC: 0.358103 (Simulation time: 1 hr 29 min 34 sec) 
Heartbeat CPU 0 instructions: 903000003 cycles: 2515831808 heartbeat IPC: 0.348647 cumulative IPC: 0.358082 (Simulation time: 1 hr 29 min 40 sec) 
Heartbeat CPU 0 instructions: 904000000 cycles: 2518710829 heartbeat IPC: 0.347339 cumulative IPC: 0.358058 (Simulation time: 1 hr 29 min 45 sec) 
Heartbeat CPU 0 instructions: 905000001 cycles: 2521552153 heartbeat IPC: 0.351949 cumulative IPC: 0.358044 (Simulation time: 1 hr 29 min 49 sec) 
Heartbeat CPU 0 instructions: 906000000 cycles: 2524234822 heartbeat IPC: 0.372763 cumulative IPC: 0.358075 (Simulation time: 1 hr 29 min 53 sec) 
Heartbeat CPU 0 instructions: 907000002 cycles: 2527101559 heartbeat IPC: 0.348829 cumulative IPC: 0.358054 (Simulation time: 1 hr 29 min 57 sec) 
Heartbeat CPU 0 instructions: 908000003 cycles: 2529849145 heartbeat IPC: 0.363956 cumulative IPC: 0.358067 (Simulation time: 1 hr 30 min 1 sec) 
Heartbeat CPU 0 instructions: 909000000 cycles: 2532731048 heartbeat IPC: 0.346992 cumulative IPC: 0.358042 (Simulation time: 1 hr 30 min 5 sec) 
Heartbeat CPU 0 instructions: 910000000 cycles: 2535588427 heartbeat IPC: 0.349971 cumulative IPC: 0.358024 (Simulation time: 1 hr 30 min 9 sec) 
Heartbeat CPU 0 instructions: 911000000 cycles: 2538473580 heartbeat IPC: 0.346602 cumulative IPC: 0.357998 (Simulation time: 1 hr 30 min 13 sec) 
Heartbeat CPU 0 instructions: 912000000 cycles: 2541193888 heartbeat IPC: 0.367605 cumulative IPC: 0.358019 (Simulation time: 1 hr 30 min 17 sec) 
Heartbeat CPU 0 instructions: 913000000 cycles: 2543859253 heartbeat IPC: 0.375183 cumulative IPC: 0.358054 (Simulation time: 1 hr 30 min 21 sec) 
Heartbeat CPU 0 instructions: 914000001 cycles: 2546798022 heartbeat IPC: 0.340279 cumulative IPC: 0.358014 (Simulation time: 1 hr 30 min 26 sec) 
Heartbeat CPU 0 instructions: 915000002 cycles: 2549632291 heartbeat IPC: 0.352825 cumulative IPC: 0.358002 (Simulation time: 1 hr 30 min 30 sec) 
Heartbeat CPU 0 instructions: 916000001 cycles: 2552423585 heartbeat IPC: 0.358256 cumulative IPC: 0.358003 (Simulation time: 1 hr 30 min 34 sec) 
Heartbeat CPU 0 instructions: 917000002 cycles: 2555218479 heartbeat IPC: 0.357796 cumulative IPC: 0.358002 (Simulation time: 1 hr 30 min 38 sec) 
Heartbeat CPU 0 instructions: 918000000 cycles: 2558035776 heartbeat IPC: 0.354949 cumulative IPC: 0.357996 (Simulation time: 1 hr 30 min 42 sec) 
Heartbeat CPU 0 instructions: 919000000 cycles: 2560794483 heartbeat IPC: 0.362489 cumulative IPC: 0.358005 (Simulation time: 1 hr 30 min 46 sec) 
Heartbeat CPU 0 instructions: 920000001 cycles: 2563689979 heartbeat IPC: 0.345364 cumulative IPC: 0.357978 (Simulation time: 1 hr 30 min 50 sec) 
Heartbeat CPU 0 instructions: 921000000 cycles: 2566552129 heartbeat IPC: 0.349387 cumulative IPC: 0.357959 (Simulation time: 1 hr 30 min 54 sec) 
Heartbeat CPU 0 instructions: 922000001 cycles: 2569400217 heartbeat IPC: 0.351113 cumulative IPC: 0.357944 (Simulation time: 1 hr 30 min 58 sec) 
Heartbeat CPU 0 instructions: 923000000 cycles: 2572104172 heartbeat IPC: 0.369828 cumulative IPC: 0.357968 (Simulation time: 1 hr 31 min 3 sec) 
Heartbeat CPU 0 instructions: 924000000 cycles: 2574967788 heartbeat IPC: 0.349209 cumulative IPC: 0.357949 (Simulation time: 1 hr 31 min 7 sec) 
Heartbeat CPU 0 instructions: 925000000 cycles: 2577696876 heartbeat IPC: 0.366423 cumulative IPC: 0.357967 (Simulation time: 1 hr 31 min 11 sec) 
Heartbeat CPU 0 instructions: 926000001 cycles: 2580413278 heartbeat IPC: 0.368134 cumulative IPC: 0.357988 (Simulation time: 1 hr 31 min 16 sec) 
Heartbeat CPU 0 instructions: 927000000 cycles: 2583215188 heartbeat IPC: 0.356899 cumulative IPC: 0.357985 (Simulation time: 1 hr 31 min 20 sec) 
Heartbeat CPU 0 instructions: 928000000 cycles: 2585810444 heartbeat IPC: 0.385318 cumulative IPC: 0.358038 (Simulation time: 1 hr 31 min 25 sec) 
Heartbeat CPU 0 instructions: 929000002 cycles: 2588873274 heartbeat IPC: 0.326496 cumulative IPC: 0.357966 (Simulation time: 1 hr 31 min 32 sec) 
Heartbeat CPU 0 instructions: 930000003 cycles: 2591813313 heartbeat IPC: 0.340132 cumulative IPC: 0.357927 (Simulation time: 1 hr 31 min 40 sec) 
Heartbeat CPU 0 instructions: 931000000 cycles: 2594763621 heartbeat IPC: 0.338947 cumulative IPC: 0.357885 (Simulation time: 1 hr 31 min 47 sec) 
Heartbeat CPU 0 instructions: 932000000 cycles: 2597238766 heartbeat IPC: 0.404017 cumulative IPC: 0.35797 (Simulation time: 1 hr 31 min 54 sec) 
Heartbeat CPU 0 instructions: 933000000 cycles: 2599825706 heartbeat IPC: 0.386557 cumulative IPC: 0.358025 (Simulation time: 1 hr 32 min 1 sec) 
Heartbeat CPU 0 instructions: 934000002 cycles: 2602639091 heartbeat IPC: 0.355444 cumulative IPC: 0.35802 (Simulation time: 1 hr 32 min 8 sec) 
Heartbeat CPU 0 instructions: 935000000 cycles: 2605334603 heartbeat IPC: 0.370986 cumulative IPC: 0.358046 (Simulation time: 1 hr 32 min 15 sec) 
Heartbeat CPU 0 instructions: 936000000 cycles: 2608259107 heartbeat IPC: 0.341938 cumulative IPC: 0.358011 (Simulation time: 1 hr 32 min 22 sec) 
Heartbeat CPU 0 instructions: 937000003 cycles: 2610987220 heartbeat IPC: 0.366555 cumulative IPC: 0.358028 (Simulation time: 1 hr 32 min 29 sec) 
Heartbeat CPU 0 instructions: 938000000 cycles: 2613823882 heartbeat IPC: 0.352526 cumulative IPC: 0.358017 (Simulation time: 1 hr 32 min 36 sec) 
Heartbeat CPU 0 instructions: 939000001 cycles: 2616446965 heartbeat IPC: 0.381231 cumulative IPC: 0.358061 (Simulation time: 1 hr 32 min 43 sec) 
Heartbeat CPU 0 instructions: 940000002 cycles: 2619299609 heartbeat IPC: 0.350552 cumulative IPC: 0.358045 (Simulation time: 1 hr 32 min 50 sec) 
Heartbeat CPU 0 instructions: 941000000 cycles: 2622177677 heartbeat IPC: 0.347455 cumulative IPC: 0.358023 (Simulation time: 1 hr 32 min 58 sec) 
Heartbeat CPU 0 instructions: 942000002 cycles: 2625171113 heartbeat IPC: 0.334065 cumulative IPC: 0.357971 (Simulation time: 1 hr 33 min 5 sec) 
Heartbeat CPU 0 instructions: 943000003 cycles: 2627781257 heartbeat IPC: 0.383121 cumulative IPC: 0.358019 (Simulation time: 1 hr 33 min 11 sec) 
Heartbeat CPU 0 instructions: 944000001 cycles: 2630519283 heartbeat IPC: 0.365226 cumulative IPC: 0.358033 (Simulation time: 1 hr 33 min 18 sec) 
Heartbeat CPU 0 instructions: 945000001 cycles: 2633332184 heartbeat IPC: 0.355505 cumulative IPC: 0.358028 (Simulation time: 1 hr 33 min 23 sec) 
Heartbeat CPU 0 instructions: 946000000 cycles: 2636258289 heartbeat IPC: 0.341751 cumulative IPC: 0.357994 (Simulation time: 1 hr 33 min 30 sec) 
Heartbeat CPU 0 instructions: 947000000 cycles: 2638851295 heartbeat IPC: 0.385653 cumulative IPC: 0.358045 (Simulation time: 1 hr 33 min 37 sec) 
Heartbeat CPU 0 instructions: 948000001 cycles: 2641745359 heartbeat IPC: 0.345535 cumulative IPC: 0.358019 (Simulation time: 1 hr 33 min 42 sec) 
Heartbeat CPU 0 instructions: 949000001 cycles: 2644550244 heartbeat IPC: 0.356521 cumulative IPC: 0.358016 (Simulation time: 1 hr 33 min 46 sec) 
Heartbeat CPU 0 instructions: 950000000 cycles: 2647329946 heartbeat IPC: 0.35975 cumulative IPC: 0.35802 (Simulation time: 1 hr 33 min 51 sec) 
Finished CPU 0 instructions: 500000000 cycles: 1396571653 cumulative IPC: 0.35802 (Simulation time: 1 hr 33 min 51 sec) 

ChampSim completed all CPUs

Region of Interest Statistics

CPU 0 cumulative IPC: 0.35802 instructions: 500000000 cycles: 1396571653
L1D TOTAL     ACCESS:  206604465  HIT:  197425101  MISS:    9179364
L1D LOAD      ACCESS:  117330605  HIT:  109336195  MISS:    7994410
L1D RFO       ACCESS:   89273860  HIT:   88088906  MISS:    1184954
L1D PREFETCH  ACCESS:          0  HIT:          0  MISS:          0
L1D WRITEBACK ACCESS:          0  HIT:          0  MISS:          0
L1D PREFETCH  REQUESTED:          0  ISSUED:          0  USEFUL:          0  USELESS:          0
L1D AVERAGE MISS LATENCY: 126.204 cycles
L1I TOTAL     ACCESS:  111041084  HIT:  110849682  MISS:     191402
L1I LOAD      ACCESS:  111041084  HIT:  110849682  MISS:     191402
L1I RFO       ACCESS:          0  HIT:          0  MISS:          0
L1I PREFETCH  ACCESS:          0  HIT:          0  MISS:          0
L1I WRITEBACK ACCESS:          0  HIT:          0  MISS:          0
L1I PREFETCH  REQUESTED:          0  ISSUED:          0  USEFUL:          0  USELESS:          0
L1I AVERAGE MISS LATENCY: 29.1671 cycles
L2C TOTAL     ACCESS:   13904165  HIT:    7765660  MISS:    6138505
L2C LOAD      ACCESS:    8185657  HIT:    2835288  MISS:    5350369
L2C RFO       ACCESS:    1184937  HIT:     402008  MISS:     782929
L2C PREFETCH  ACCESS:          0  HIT:          0  MISS:          0
L2C WRITEBACK ACCESS:    4533571  HIT:    4528364  MISS:       5207
L2C PREFETCH  REQUESTED:          0  ISSUED:          0  USEFUL:          0  USELESS:          0
L2C AVERAGE MISS LATENCY: 158.627 cycles
LLC TOTAL     ACCESS:    9173870  HIT:    4572162  MISS:    4601708
LLC LOAD      ACCESS:    5350358  HIT:    1209210  MISS:    4141148
LLC RFO       ACCESS:     782929  HIT:     334969  MISS:     447960
LLC PREFETCH  ACCESS:          0  HIT:          0  MISS:          0
LLC WRITEBACK ACCESS:    3040583  HIT:    3027983  MISS:      12600
LLC PREFETCH  REQUESTED:          0  ISSUED:          0  USEFUL:          0  USELESS:          0
LLC AVERAGE MISS LATENCY: 167.198 cycles
Major fault: 0 Minor fault: 51304

DRAM Statistics
 CHANNEL 0
 RQ ROW_BUFFER_HIT:     356893  ROW_BUFFER_MISS:    4232211
 DBUS_CONGESTED:    2666064
 WQ ROW_BUFFER_HIT:     381557  ROW_BUFFER_MISS:    1800080  FULL:          0

 AVG_CONGESTED_CYCLE: 6

CPU 0 Branch Prediction Accuracy: 98.1911% MPKI: 3.75995 Average ROB Occupancy at Mispredict: 95.2425

Branch types
NOT_BRANCH: 396068354 79.2137%
BRANCH_DIRECT_JUMP: 5695008 1.139%
BRANCH_INDIRECT: 1682098 0.33642%
BRANCH_CONDITIONAL: 66814580 13.3629%
BRANCH_DIRECT_CALL: 8889234 1.77785%
BRANCH_INDIRECT_CALL: 5980763 1.19615%
BRANCH_RETURN: 14869998 2.974%
BRANCH_OTHER: 0 0%

