
*** ChampSim Multicore Out-of-Order Simulator ***

Warmup Instructions: 1000000
Prefetch Warmup Instructions: 450000000
Simulation Instructions: 500000000
Number of CPUs: 1
LLC sets: 2048
LLC ways: 16
Off-chip DRAM Size: 4096 MB Channels: 1 Width: 64-bit Data Rate: 3200 MT/s

CPU 0 runs /scratch/cluster/cmolder/ML-DPC/data/champsim_traces/spec17/605.mcf-s0.trace.xz
Read seed: 267
CPU 0 LLC from_file prefetcher

Warmup complete CPU 0 instructions: 1000001 cycles: 419014 (Simulation time: 0 hr 0 min 14 sec) 

Heartbeat CPU 0 instructions: 10000002 cycles: 25707781 heartbeat IPC: 0.388987 cumulative IPC: 0.355889 (Simulation time: 0 hr 1 min 46 sec) 
Heartbeat CPU 0 instructions: 20000001 cycles: 54348279 heartbeat IPC: 0.349156 cumulative IPC: 0.352313 (Simulation time: 0 hr 3 min 33 sec) 
Heartbeat CPU 0 instructions: 30000000 cycles: 82559839 heartbeat IPC: 0.354465 cumulative IPC: 0.353052 (Simulation time: 0 hr 5 min 19 sec) 
Heartbeat CPU 0 instructions: 40000001 cycles: 110794561 heartbeat IPC: 0.354174 cumulative IPC: 0.353339 (Simulation time: 0 hr 7 min 7 sec) 
Heartbeat CPU 0 instructions: 50000001 cycles: 139314721 heartbeat IPC: 0.350629 cumulative IPC: 0.352783 (Simulation time: 0 hr 8 min 56 sec) 
Heartbeat CPU 0 instructions: 60000001 cycles: 167471447 heartbeat IPC: 0.355155 cumulative IPC: 0.353183 (Simulation time: 0 hr 10 min 45 sec) 
Heartbeat CPU 0 instructions: 70000001 cycles: 196249363 heartbeat IPC: 0.347489 cumulative IPC: 0.352346 (Simulation time: 0 hr 12 min 33 sec) 
Heartbeat CPU 0 instructions: 80000003 cycles: 224365465 heartbeat IPC: 0.355668 cumulative IPC: 0.352763 (Simulation time: 0 hr 14 min 22 sec) 
Heartbeat CPU 0 instructions: 90000003 cycles: 252879118 heartbeat IPC: 0.350709 cumulative IPC: 0.352531 (Simulation time: 0 hr 16 min 13 sec) 
Heartbeat CPU 0 instructions: 100000001 cycles: 281734866 heartbeat IPC: 0.346551 cumulative IPC: 0.351918 (Simulation time: 0 hr 18 min 5 sec) 
Heartbeat CPU 0 instructions: 110000000 cycles: 310607660 heartbeat IPC: 0.346347 cumulative IPC: 0.351399 (Simulation time: 0 hr 19 min 55 sec) 
Heartbeat CPU 0 instructions: 120000002 cycles: 339779735 heartbeat IPC: 0.342794 cumulative IPC: 0.350659 (Simulation time: 0 hr 21 min 47 sec) 
Heartbeat CPU 0 instructions: 130000002 cycles: 369719848 heartbeat IPC: 0.334 cumulative IPC: 0.349309 (Simulation time: 0 hr 23 min 45 sec) 
Heartbeat CPU 0 instructions: 140000002 cycles: 400479476 heartbeat IPC: 0.325101 cumulative IPC: 0.347447 (Simulation time: 0 hr 25 min 43 sec) 
Heartbeat CPU 0 instructions: 150000001 cycles: 431919342 heartbeat IPC: 0.318067 cumulative IPC: 0.345307 (Simulation time: 0 hr 27 min 49 sec) 
Heartbeat CPU 0 instructions: 160000001 cycles: 464455598 heartbeat IPC: 0.307349 cumulative IPC: 0.342645 (Simulation time: 0 hr 30 min 0 sec) 
Heartbeat CPU 0 instructions: 170000001 cycles: 498310290 heartbeat IPC: 0.29538 cumulative IPC: 0.339432 (Simulation time: 0 hr 32 min 17 sec) 
Heartbeat CPU 0 instructions: 180000003 cycles: 532637905 heartbeat IPC: 0.291311 cumulative IPC: 0.336328 (Simulation time: 0 hr 34 min 43 sec) 
Heartbeat CPU 0 instructions: 190000002 cycles: 567636130 heartbeat IPC: 0.285729 cumulative IPC: 0.333206 (Simulation time: 0 hr 36 min 54 sec) 
Heartbeat CPU 0 instructions: 200000001 cycles: 603304543 heartbeat IPC: 0.28036 cumulative IPC: 0.330079 (Simulation time: 0 hr 39 min 11 sec) 
Heartbeat CPU 0 instructions: 210000002 cycles: 638688095 heartbeat IPC: 0.282617 cumulative IPC: 0.327448 (Simulation time: 0 hr 41 min 28 sec) 
Heartbeat CPU 0 instructions: 220000000 cycles: 672938682 heartbeat IPC: 0.291966 cumulative IPC: 0.325641 (Simulation time: 0 hr 43 min 41 sec) 
Heartbeat CPU 0 instructions: 230000001 cycles: 706943723 heartbeat IPC: 0.294074 cumulative IPC: 0.324122 (Simulation time: 0 hr 45 min 52 sec) 
Heartbeat CPU 0 instructions: 240000001 cycles: 745143854 heartbeat IPC: 0.261779 cumulative IPC: 0.320924 (Simulation time: 0 hr 48 min 10 sec) 
Heartbeat CPU 0 instructions: 250000001 cycles: 780083020 heartbeat IPC: 0.286212 cumulative IPC: 0.319368 (Simulation time: 0 hr 50 min 17 sec) 
Heartbeat CPU 0 instructions: 260000000 cycles: 811920335 heartbeat IPC: 0.314097 cumulative IPC: 0.319162 (Simulation time: 0 hr 52 min 19 sec) 
Heartbeat CPU 0 instructions: 270000000 cycles: 844380384 heartbeat IPC: 0.308071 cumulative IPC: 0.318735 (Simulation time: 0 hr 54 min 21 sec) 
Heartbeat CPU 0 instructions: 280000000 cycles: 876385873 heartbeat IPC: 0.312446 cumulative IPC: 0.318505 (Simulation time: 0 hr 56 min 20 sec) 
Heartbeat CPU 0 instructions: 290000000 cycles: 908732628 heartbeat IPC: 0.30915 cumulative IPC: 0.318172 (Simulation time: 0 hr 58 min 22 sec) 
Heartbeat CPU 0 instructions: 300000000 cycles: 940674163 heartbeat IPC: 0.313072 cumulative IPC: 0.317999 (Simulation time: 1 hr 0 min 24 sec) 
Heartbeat CPU 0 instructions: 310000000 cycles: 973027664 heartbeat IPC: 0.309086 cumulative IPC: 0.317702 (Simulation time: 1 hr 2 min 26 sec) 
Heartbeat CPU 0 instructions: 320000000 cycles: 1005305909 heartbeat IPC: 0.309806 cumulative IPC: 0.317449 (Simulation time: 1 hr 4 min 28 sec) 
Heartbeat CPU 0 instructions: 330000000 cycles: 1037361455 heartbeat IPC: 0.311958 cumulative IPC: 0.317279 (Simulation time: 1 hr 6 min 29 sec) 
Heartbeat CPU 0 instructions: 340000003 cycles: 1069901250 heartbeat IPC: 0.307316 cumulative IPC: 0.316976 (Simulation time: 1 hr 8 min 36 sec) 
Heartbeat CPU 0 instructions: 350000000 cycles: 1102552962 heartbeat IPC: 0.306263 cumulative IPC: 0.316658 (Simulation time: 1 hr 10 min 43 sec) 
Heartbeat CPU 0 instructions: 360000001 cycles: 1134806081 heartbeat IPC: 0.310048 cumulative IPC: 0.31647 (Simulation time: 1 hr 12 min 48 sec) 
Heartbeat CPU 0 instructions: 370000002 cycles: 1167564320 heartbeat IPC: 0.305267 cumulative IPC: 0.316156 (Simulation time: 1 hr 14 min 56 sec) 
Heartbeat CPU 0 instructions: 380000000 cycles: 1201329439 heartbeat IPC: 0.296164 cumulative IPC: 0.315594 (Simulation time: 1 hr 17 min 6 sec) 
Heartbeat CPU 0 instructions: 390000002 cycles: 1235189908 heartbeat IPC: 0.29533 cumulative IPC: 0.315038 (Simulation time: 1 hr 19 min 18 sec) 
Heartbeat CPU 0 instructions: 400000001 cycles: 1270614932 heartbeat IPC: 0.282286 cumulative IPC: 0.314125 (Simulation time: 1 hr 21 min 34 sec) 
Heartbeat CPU 0 instructions: 410000003 cycles: 1311161975 heartbeat IPC: 0.246627 cumulative IPC: 0.312037 (Simulation time: 1 hr 23 min 58 sec) 
Heartbeat CPU 0 instructions: 420000001 cycles: 1344001942 heartbeat IPC: 0.304507 cumulative IPC: 0.311853 (Simulation time: 1 hr 26 min 7 sec) 
Heartbeat CPU 0 instructions: 430000001 cycles: 1378514075 heartbeat IPC: 0.289753 cumulative IPC: 0.311299 (Simulation time: 1 hr 28 min 22 sec) 
Heartbeat CPU 0 instructions: 440000000 cycles: 1412772557 heartbeat IPC: 0.291898 cumulative IPC: 0.310829 (Simulation time: 1 hr 30 min 35 sec) 
Heartbeat CPU 0 instructions: 450000001 cycles: 1447011115 heartbeat IPC: 0.292068 cumulative IPC: 0.310385 (Simulation time: 1 hr 32 min 46 sec) 

Warmup complete CPU 0 instructions: 450000001 cycles: 1447011115 (Simulation time: 1 hr 32 min 46 sec) 

Heartbeat CPU 0 instructions: 460000000 cycles: 1485615719 heartbeat IPC: 0.259036 cumulative IPC: 0.259036 (Simulation time: 1 hr 35 min 11 sec) 
Heartbeat CPU 0 instructions: 470000002 cycles: 1528420805 heartbeat IPC: 0.233617 cumulative IPC: 0.245671 (Simulation time: 1 hr 37 min 49 sec) 
Heartbeat CPU 0 instructions: 480000000 cycles: 1571024273 heartbeat IPC: 0.234723 cumulative IPC: 0.24191 (Simulation time: 1 hr 40 min 25 sec) 
Heartbeat CPU 0 instructions: 490000003 cycles: 1614370766 heartbeat IPC: 0.230699 cumulative IPC: 0.239006 (Simulation time: 1 hr 43 min 11 sec) 
Heartbeat CPU 0 instructions: 500000002 cycles: 1656788322 heartbeat IPC: 0.235751 cumulative IPC: 0.238348 (Simulation time: 1 hr 45 min 53 sec) 
Heartbeat CPU 0 instructions: 510000000 cycles: 1690847849 heartbeat IPC: 0.293604 cumulative IPC: 0.246066 (Simulation time: 1 hr 48 min 5 sec) 
Heartbeat CPU 0 instructions: 520000000 cycles: 1723267344 heartbeat IPC: 0.308456 cumulative IPC: 0.253388 (Simulation time: 1 hr 50 min 11 sec) 
Heartbeat CPU 0 instructions: 530000002 cycles: 1756078797 heartbeat IPC: 0.304772 cumulative IPC: 0.258843 (Simulation time: 1 hr 52 min 19 sec) 
Heartbeat CPU 0 instructions: 540000000 cycles: 1788348148 heartbeat IPC: 0.309892 cumulative IPC: 0.263669 (Simulation time: 1 hr 54 min 23 sec) 
Heartbeat CPU 0 instructions: 550000000 cycles: 1820828639 heartbeat IPC: 0.307877 cumulative IPC: 0.26751 (Simulation time: 1 hr 56 min 27 sec) 
Heartbeat CPU 0 instructions: 560000002 cycles: 1852398500 heartbeat IPC: 0.316758 cumulative IPC: 0.271345 (Simulation time: 1 hr 58 min 27 sec) 
Heartbeat CPU 0 instructions: 570000003 cycles: 1883736520 heartbeat IPC: 0.319101 cumulative IPC: 0.274772 (Simulation time: 2 hr 0 min 29 sec) 
Heartbeat CPU 0 instructions: 580000000 cycles: 1921742629 heartbeat IPC: 0.263116 cumulative IPC: 0.273839 (Simulation time: 2 hr 2 min 40 sec) 
Heartbeat CPU 0 instructions: 590000000 cycles: 1952936075 heartbeat IPC: 0.32058 cumulative IPC: 0.276721 (Simulation time: 2 hr 4 min 35 sec) 
Heartbeat CPU 0 instructions: 600000000 cycles: 1983654959 heartbeat IPC: 0.325533 cumulative IPC: 0.279515 (Simulation time: 2 hr 6 min 30 sec) 
Heartbeat CPU 0 instructions: 610000001 cycles: 2014125839 heartbeat IPC: 0.328182 cumulative IPC: 0.28213 (Simulation time: 2 hr 8 min 25 sec) 
Heartbeat CPU 0 instructions: 620000002 cycles: 2044383318 heartbeat IPC: 0.330497 cumulative IPC: 0.28458 (Simulation time: 2 hr 10 min 20 sec) 
Heartbeat CPU 0 instructions: 630000002 cycles: 2075007955 heartbeat IPC: 0.326534 cumulative IPC: 0.286626 (Simulation time: 2 hr 12 min 16 sec) 
Heartbeat CPU 0 instructions: 640000003 cycles: 2105043702 heartbeat IPC: 0.332937 cumulative IPC: 0.28874 (Simulation time: 2 hr 14 min 11 sec) 
Heartbeat CPU 0 instructions: 650000000 cycles: 2134919052 heartbeat IPC: 0.334724 cumulative IPC: 0.290737 (Simulation time: 2 hr 16 min 5 sec) 
Heartbeat CPU 0 instructions: 660000000 cycles: 2165053539 heartbeat IPC: 0.331846 cumulative IPC: 0.292462 (Simulation time: 2 hr 18 min 0 sec) 
Heartbeat CPU 0 instructions: 670000001 cycles: 2195428481 heartbeat IPC: 0.329219 cumulative IPC: 0.293954 (Simulation time: 2 hr 19 min 55 sec) 
Heartbeat CPU 0 instructions: 680000000 cycles: 2225887352 heartbeat IPC: 0.328312 cumulative IPC: 0.295297 (Simulation time: 2 hr 21 min 49 sec) 
Heartbeat CPU 0 instructions: 690000001 cycles: 2256513921 heartbeat IPC: 0.326514 cumulative IPC: 0.296478 (Simulation time: 2 hr 23 min 46 sec) 
Heartbeat CPU 0 instructions: 700000000 cycles: 2285777146 heartbeat IPC: 0.341726 cumulative IPC: 0.298057 (Simulation time: 2 hr 25 min 36 sec) 
Heartbeat CPU 0 instructions: 710000001 cycles: 2312738195 heartbeat IPC: 0.370905 cumulative IPC: 0.300326 (Simulation time: 2 hr 27 min 16 sec) 
Heartbeat CPU 0 instructions: 720000001 cycles: 2340209272 heartbeat IPC: 0.364019 cumulative IPC: 0.302285 (Simulation time: 2 hr 28 min 59 sec) 
Heartbeat CPU 0 instructions: 730000000 cycles: 2366996672 heartbeat IPC: 0.37331 cumulative IPC: 0.304353 (Simulation time: 2 hr 30 min 37 sec) 
Heartbeat CPU 0 instructions: 740000002 cycles: 2393817051 heartbeat IPC: 0.372851 cumulative IPC: 0.306293 (Simulation time: 2 hr 32 min 11 sec) 
Heartbeat CPU 0 instructions: 750000002 cycles: 2421131253 heartbeat IPC: 0.36611 cumulative IPC: 0.30797 (Simulation time: 2 hr 33 min 12 sec) 
Heartbeat CPU 0 instructions: 760000001 cycles: 2450703127 heartbeat IPC: 0.338159 cumulative IPC: 0.30886 (Simulation time: 2 hr 33 min 52 sec) 
Heartbeat CPU 0 instructions: 770000000 cycles: 2481815677 heartbeat IPC: 0.321414 cumulative IPC: 0.309237 (Simulation time: 2 hr 34 min 36 sec) 
Heartbeat CPU 0 instructions: 780000003 cycles: 2513365018 heartbeat IPC: 0.316964 cumulative IPC: 0.309466 (Simulation time: 2 hr 35 min 20 sec) 
Heartbeat CPU 0 instructions: 790000000 cycles: 2546777164 heartbeat IPC: 0.299292 cumulative IPC: 0.309157 (Simulation time: 2 hr 36 min 7 sec) 
Heartbeat CPU 0 instructions: 800000003 cycles: 2580246756 heartbeat IPC: 0.298779 cumulative IPC: 0.30885 (Simulation time: 2 hr 36 min 53 sec) 
Heartbeat CPU 0 instructions: 810000003 cycles: 2614168748 heartbeat IPC: 0.294794 cumulative IPC: 0.308442 (Simulation time: 2 hr 37 min 35 sec) 
Heartbeat CPU 0 instructions: 820000003 cycles: 2647285106 heartbeat IPC: 0.301966 cumulative IPC: 0.308263 (Simulation time: 2 hr 38 min 14 sec) 
Heartbeat CPU 0 instructions: 830000000 cycles: 2679856151 heartbeat IPC: 0.307021 cumulative IPC: 0.30823 (Simulation time: 2 hr 38 min 54 sec) 
Heartbeat CPU 0 instructions: 840000001 cycles: 2712613810 heartbeat IPC: 0.305272 cumulative IPC: 0.308154 (Simulation time: 2 hr 39 min 34 sec) 
Heartbeat CPU 0 instructions: 850000001 cycles: 2745632621 heartbeat IPC: 0.302858 cumulative IPC: 0.308019 (Simulation time: 2 hr 40 min 14 sec) 
Heartbeat CPU 0 instructions: 860000000 cycles: 2778739825 heartbeat IPC: 0.302049 cumulative IPC: 0.307871 (Simulation time: 2 hr 40 min 55 sec) 
Heartbeat CPU 0 instructions: 870000003 cycles: 2811384665 heartbeat IPC: 0.306327 cumulative IPC: 0.307834 (Simulation time: 2 hr 41 min 35 sec) 
Heartbeat CPU 0 instructions: 880000000 cycles: 2844689321 heartbeat IPC: 0.300258 cumulative IPC: 0.307653 (Simulation time: 2 hr 42 min 16 sec) 
Heartbeat CPU 0 instructions: 890000000 cycles: 2878011383 heartbeat IPC: 0.300101 cumulative IPC: 0.307477 (Simulation time: 2 hr 42 min 57 sec) 
Heartbeat CPU 0 instructions: 900000000 cycles: 2910387564 heartbeat IPC: 0.308869 cumulative IPC: 0.307508 (Simulation time: 2 hr 43 min 38 sec) 
Heartbeat CPU 0 instructions: 910000001 cycles: 2943353391 heartbeat IPC: 0.303344 cumulative IPC: 0.307416 (Simulation time: 2 hr 44 min 20 sec) 
Heartbeat CPU 0 instructions: 920000000 cycles: 2975872724 heartbeat IPC: 0.307509 cumulative IPC: 0.307418 (Simulation time: 2 hr 45 min 1 sec) 
Heartbeat CPU 0 instructions: 930000000 cycles: 3008957736 heartbeat IPC: 0.302252 cumulative IPC: 0.307309 (Simulation time: 2 hr 45 min 43 sec) 
Heartbeat CPU 0 instructions: 940000000 cycles: 3042522148 heartbeat IPC: 0.297935 cumulative IPC: 0.307112 (Simulation time: 2 hr 46 min 24 sec) 
Heartbeat CPU 0 instructions: 950000000 cycles: 3076805430 heartbeat IPC: 0.291687 cumulative IPC: 0.306787 (Simulation time: 2 hr 47 min 3 sec) 
Finished CPU 0 instructions: 500000000 cycles: 1629794316 cumulative IPC: 0.306787 (Simulation time: 2 hr 47 min 3 sec) 

ChampSim completed all CPUs

Region of Interest Statistics

CPU 0 cumulative IPC: 0.306787 instructions: 500000000 cycles: 1629794316
L1D TOTAL     ACCESS:  164215437  HIT:  131649355  MISS:   32566082
L1D LOAD      ACCESS:  121481595  HIT:   90492316  MISS:   30989279
L1D RFO       ACCESS:   42733842  HIT:   41157039  MISS:    1576803
L1D PREFETCH  ACCESS:          0  HIT:          0  MISS:          0
L1D WRITEBACK ACCESS:          0  HIT:          0  MISS:          0
L1D PREFETCH  REQUESTED:          0  ISSUED:          0  USEFUL:          0  USELESS:          0
L1D AVERAGE MISS LATENCY: 90.5458 cycles
L1I TOTAL     ACCESS:   90208961  HIT:   90208961  MISS:          0
L1I LOAD      ACCESS:   90208961  HIT:   90208961  MISS:          0
L1I RFO       ACCESS:          0  HIT:          0  MISS:          0
L1I PREFETCH  ACCESS:          0  HIT:          0  MISS:          0
L1I WRITEBACK ACCESS:          0  HIT:          0  MISS:          0
L1I PREFETCH  REQUESTED:          0  ISSUED:          0  USEFUL:          0  USELESS:          0
L1I AVERAGE MISS LATENCY: -nan cycles
L2C TOTAL     ACCESS:   34973923  HIT:    8761896  MISS:   26212027
L2C LOAD      ACCESS:   30989131  HIT:    5546994  MISS:   25442137
L2C RFO       ACCESS:    1576795  HIT:     810199  MISS:     766596
L2C PREFETCH  ACCESS:          0  HIT:          0  MISS:          0
L2C WRITEBACK ACCESS:    2407997  HIT:    2404703  MISS:       3294
L2C PREFETCH  REQUESTED:          0  ISSUED:          0  USEFUL:          0  USELESS:          0
L2C AVERAGE MISS LATENCY: 93.3968 cycles
LLC TOTAL     ACCESS:   30206607  HIT:   16212451  MISS:   13994156
LLC LOAD      ACCESS:   25442127  HIT:   12651867  MISS:   12790260
LLC RFO       ACCESS:     766594  HIT:     748533  MISS:      18061
LLC PREFETCH  ACCESS:    2453864  HIT:    1298478  MISS:    1155386
LLC WRITEBACK ACCESS:    1544022  HIT:    1513573  MISS:      30449
LLC PREFETCH  REQUESTED:    2713735  ISSUED:    2713735  USEFUL:      32620  USELESS:    1122766
LLC AVERAGE MISS LATENCY: 139.383 cycles
Major fault: 0 Minor fault: 303883
CPU 0 LLC from file prefetcher final stats

DRAM Statistics
 CHANNEL 0
 RQ ROW_BUFFER_HIT:    6780233  ROW_BUFFER_MISS:    7183375
 DBUS_CONGESTED:    6133520
 WQ ROW_BUFFER_HIT:      61631  ROW_BUFFER_MISS:      94482  FULL:          0

 AVG_CONGESTED_CYCLE: 5

CPU 0 Branch Prediction Accuracy: 94.4017% MPKI: 14.3155 Average ROB Occupancy at Mispredict: 32.8763

Branch types
NOT_BRANCH: 372143845 74.4288%
BRANCH_DIRECT_JUMP: 14238481 2.8477%
BRANCH_INDIRECT: 0 0%
BRANCH_CONDITIONAL: 93325958 18.6652%
BRANCH_DIRECT_CALL: 9505113 1.90102%
BRANCH_INDIRECT_CALL: 640558 0.128112%
BRANCH_RETURN: 10145672 2.02913%
BRANCH_OTHER: 0 0%

