
*** ChampSim Multicore Out-of-Order Simulator ***

Warmup Instructions: 1000000
Prefetch Warmup Instructions: 450000000
Simulation Instructions: 500000000
Number of CPUs: 1
LLC sets: 2048
LLC ways: 16
Off-chip DRAM Size: 4096 MB Channels: 1 Width: 64-bit Data Rate: 3200 MT/s

CPU 0 runs /scratch/cluster/cmolder/ML-DPC/data/champsim_traces/spec17/605.mcf-s0.trace.xz
Read seed: 267
CPU 0 LLC from_file prefetcher

Warmup complete CPU 0 instructions: 1000001 cycles: 419014 (Simulation time: 0 hr 0 min 6 sec) 

Heartbeat CPU 0 instructions: 10000002 cycles: 25707781 heartbeat IPC: 0.388987 cumulative IPC: 0.355889 (Simulation time: 0 hr 0 min 58 sec) 
Heartbeat CPU 0 instructions: 20000001 cycles: 54348279 heartbeat IPC: 0.349156 cumulative IPC: 0.352313 (Simulation time: 0 hr 1 min 56 sec) 
Heartbeat CPU 0 instructions: 30000000 cycles: 82559839 heartbeat IPC: 0.354465 cumulative IPC: 0.353052 (Simulation time: 0 hr 2 min 51 sec) 
Heartbeat CPU 0 instructions: 40000001 cycles: 110794561 heartbeat IPC: 0.354174 cumulative IPC: 0.353339 (Simulation time: 0 hr 3 min 47 sec) 
Heartbeat CPU 0 instructions: 50000001 cycles: 139314721 heartbeat IPC: 0.350629 cumulative IPC: 0.352783 (Simulation time: 0 hr 4 min 43 sec) 
Heartbeat CPU 0 instructions: 60000001 cycles: 167471447 heartbeat IPC: 0.355155 cumulative IPC: 0.353183 (Simulation time: 0 hr 5 min 43 sec) 
Heartbeat CPU 0 instructions: 70000001 cycles: 196249363 heartbeat IPC: 0.347489 cumulative IPC: 0.352346 (Simulation time: 0 hr 6 min 41 sec) 
Heartbeat CPU 0 instructions: 80000003 cycles: 224365465 heartbeat IPC: 0.355668 cumulative IPC: 0.352763 (Simulation time: 0 hr 7 min 39 sec) 
Heartbeat CPU 0 instructions: 90000003 cycles: 252879118 heartbeat IPC: 0.350709 cumulative IPC: 0.352531 (Simulation time: 0 hr 8 min 37 sec) 
Heartbeat CPU 0 instructions: 100000001 cycles: 281734866 heartbeat IPC: 0.346551 cumulative IPC: 0.351918 (Simulation time: 0 hr 9 min 36 sec) 
Heartbeat CPU 0 instructions: 110000000 cycles: 310607660 heartbeat IPC: 0.346347 cumulative IPC: 0.351399 (Simulation time: 0 hr 10 min 34 sec) 
Heartbeat CPU 0 instructions: 120000002 cycles: 339779735 heartbeat IPC: 0.342794 cumulative IPC: 0.350659 (Simulation time: 0 hr 11 min 32 sec) 
Heartbeat CPU 0 instructions: 130000002 cycles: 369719848 heartbeat IPC: 0.334 cumulative IPC: 0.349309 (Simulation time: 0 hr 12 min 32 sec) 
Heartbeat CPU 0 instructions: 140000002 cycles: 400479476 heartbeat IPC: 0.325101 cumulative IPC: 0.347447 (Simulation time: 0 hr 13 min 34 sec) 
Heartbeat CPU 0 instructions: 150000001 cycles: 431919342 heartbeat IPC: 0.318067 cumulative IPC: 0.345307 (Simulation time: 0 hr 14 min 37 sec) 
Heartbeat CPU 0 instructions: 160000001 cycles: 464455598 heartbeat IPC: 0.307349 cumulative IPC: 0.342645 (Simulation time: 0 hr 15 min 44 sec) 
Heartbeat CPU 0 instructions: 170000001 cycles: 498310290 heartbeat IPC: 0.29538 cumulative IPC: 0.339432 (Simulation time: 0 hr 16 min 54 sec) 
Heartbeat CPU 0 instructions: 180000003 cycles: 532637905 heartbeat IPC: 0.291311 cumulative IPC: 0.336328 (Simulation time: 0 hr 18 min 5 sec) 
Heartbeat CPU 0 instructions: 190000002 cycles: 567636130 heartbeat IPC: 0.285729 cumulative IPC: 0.333206 (Simulation time: 0 hr 19 min 17 sec) 
Heartbeat CPU 0 instructions: 200000001 cycles: 603304543 heartbeat IPC: 0.28036 cumulative IPC: 0.330079 (Simulation time: 0 hr 20 min 30 sec) 
Heartbeat CPU 0 instructions: 210000002 cycles: 638688095 heartbeat IPC: 0.282617 cumulative IPC: 0.327448 (Simulation time: 0 hr 21 min 41 sec) 
Heartbeat CPU 0 instructions: 220000000 cycles: 672938682 heartbeat IPC: 0.291966 cumulative IPC: 0.325641 (Simulation time: 0 hr 22 min 51 sec) 
Heartbeat CPU 0 instructions: 230000001 cycles: 706943723 heartbeat IPC: 0.294074 cumulative IPC: 0.324122 (Simulation time: 0 hr 23 min 59 sec) 
Heartbeat CPU 0 instructions: 240000001 cycles: 745143854 heartbeat IPC: 0.261779 cumulative IPC: 0.320924 (Simulation time: 0 hr 25 min 9 sec) 
Heartbeat CPU 0 instructions: 250000001 cycles: 780083020 heartbeat IPC: 0.286212 cumulative IPC: 0.319368 (Simulation time: 0 hr 26 min 17 sec) 
Heartbeat CPU 0 instructions: 260000000 cycles: 811920335 heartbeat IPC: 0.314097 cumulative IPC: 0.319162 (Simulation time: 0 hr 27 min 23 sec) 
Heartbeat CPU 0 instructions: 270000000 cycles: 844380384 heartbeat IPC: 0.308071 cumulative IPC: 0.318735 (Simulation time: 0 hr 28 min 28 sec) 
Heartbeat CPU 0 instructions: 280000000 cycles: 876385873 heartbeat IPC: 0.312446 cumulative IPC: 0.318505 (Simulation time: 0 hr 29 min 31 sec) 
Heartbeat CPU 0 instructions: 290000000 cycles: 908732628 heartbeat IPC: 0.30915 cumulative IPC: 0.318172 (Simulation time: 0 hr 30 min 38 sec) 
Heartbeat CPU 0 instructions: 300000000 cycles: 940674163 heartbeat IPC: 0.313072 cumulative IPC: 0.317999 (Simulation time: 0 hr 31 min 43 sec) 
Heartbeat CPU 0 instructions: 310000000 cycles: 973027664 heartbeat IPC: 0.309086 cumulative IPC: 0.317702 (Simulation time: 0 hr 32 min 48 sec) 
Heartbeat CPU 0 instructions: 320000000 cycles: 1005305909 heartbeat IPC: 0.309806 cumulative IPC: 0.317449 (Simulation time: 0 hr 33 min 51 sec) 
Heartbeat CPU 0 instructions: 330000000 cycles: 1037361455 heartbeat IPC: 0.311958 cumulative IPC: 0.317279 (Simulation time: 0 hr 34 min 55 sec) 
Heartbeat CPU 0 instructions: 340000003 cycles: 1069901250 heartbeat IPC: 0.307316 cumulative IPC: 0.316976 (Simulation time: 0 hr 36 min 0 sec) 
Heartbeat CPU 0 instructions: 350000000 cycles: 1102552962 heartbeat IPC: 0.306263 cumulative IPC: 0.316658 (Simulation time: 0 hr 37 min 6 sec) 
Heartbeat CPU 0 instructions: 360000001 cycles: 1134806081 heartbeat IPC: 0.310048 cumulative IPC: 0.31647 (Simulation time: 0 hr 38 min 11 sec) 
Heartbeat CPU 0 instructions: 370000002 cycles: 1167564320 heartbeat IPC: 0.305267 cumulative IPC: 0.316156 (Simulation time: 0 hr 39 min 17 sec) 
Heartbeat CPU 0 instructions: 380000000 cycles: 1201329439 heartbeat IPC: 0.296164 cumulative IPC: 0.315594 (Simulation time: 0 hr 40 min 25 sec) 
Heartbeat CPU 0 instructions: 390000002 cycles: 1235189908 heartbeat IPC: 0.29533 cumulative IPC: 0.315038 (Simulation time: 0 hr 41 min 32 sec) 
Heartbeat CPU 0 instructions: 400000001 cycles: 1270614932 heartbeat IPC: 0.282286 cumulative IPC: 0.314125 (Simulation time: 0 hr 42 min 43 sec) 
Heartbeat CPU 0 instructions: 410000003 cycles: 1311161975 heartbeat IPC: 0.246627 cumulative IPC: 0.312037 (Simulation time: 0 hr 43 min 56 sec) 
Heartbeat CPU 0 instructions: 420000001 cycles: 1344001942 heartbeat IPC: 0.304507 cumulative IPC: 0.311853 (Simulation time: 0 hr 45 min 2 sec) 
Heartbeat CPU 0 instructions: 430000001 cycles: 1378514075 heartbeat IPC: 0.289753 cumulative IPC: 0.311299 (Simulation time: 0 hr 46 min 12 sec) 
Heartbeat CPU 0 instructions: 440000000 cycles: 1412772557 heartbeat IPC: 0.291898 cumulative IPC: 0.310829 (Simulation time: 0 hr 47 min 20 sec) 
Heartbeat CPU 0 instructions: 450000001 cycles: 1447011115 heartbeat IPC: 0.292068 cumulative IPC: 0.310385 (Simulation time: 0 hr 48 min 28 sec) 

Warmup complete CPU 0 instructions: 450000001 cycles: 1447011115 (Simulation time: 0 hr 48 min 28 sec) 

Heartbeat CPU 0 instructions: 460000000 cycles: 1486934932 heartbeat IPC: 0.250477 cumulative IPC: 0.250477 (Simulation time: 0 hr 49 min 46 sec) 
Heartbeat CPU 0 instructions: 470000002 cycles: 1532386683 heartbeat IPC: 0.220014 cumulative IPC: 0.234259 (Simulation time: 0 hr 51 min 13 sec) 
Heartbeat CPU 0 instructions: 480000000 cycles: 1577548894 heartbeat IPC: 0.221424 cumulative IPC: 0.229819 (Simulation time: 0 hr 52 min 39 sec) 
Heartbeat CPU 0 instructions: 490000003 cycles: 1623557551 heartbeat IPC: 0.21735 cumulative IPC: 0.226569 (Simulation time: 0 hr 54 min 7 sec) 
Heartbeat CPU 0 instructions: 500000002 cycles: 1668610997 heartbeat IPC: 0.221959 cumulative IPC: 0.225632 (Simulation time: 0 hr 55 min 34 sec) 
Heartbeat CPU 0 instructions: 510000000 cycles: 1702685254 heartbeat IPC: 0.293477 cumulative IPC: 0.234674 (Simulation time: 0 hr 56 min 42 sec) 
Heartbeat CPU 0 instructions: 520000000 cycles: 1735104573 heartbeat IPC: 0.308458 cumulative IPC: 0.242977 (Simulation time: 0 hr 57 min 46 sec) 
Heartbeat CPU 0 instructions: 530000002 cycles: 1767915911 heartbeat IPC: 0.304773 cumulative IPC: 0.249295 (Simulation time: 0 hr 58 min 51 sec) 
Heartbeat CPU 0 instructions: 540000000 cycles: 1800185037 heartbeat IPC: 0.309894 cumulative IPC: 0.254832 (Simulation time: 0 hr 59 min 56 sec) 
Heartbeat CPU 0 instructions: 550000000 cycles: 1832665340 heartbeat IPC: 0.307879 cumulative IPC: 0.2593 (Simulation time: 1 hr 1 min 0 sec) 
Heartbeat CPU 0 instructions: 560000002 cycles: 1864235162 heartbeat IPC: 0.316758 cumulative IPC: 0.263647 (Simulation time: 1 hr 2 min 3 sec) 
Heartbeat CPU 0 instructions: 570000003 cycles: 1895573247 heartbeat IPC: 0.319101 cumulative IPC: 0.267521 (Simulation time: 1 hr 3 min 5 sec) 
Heartbeat CPU 0 instructions: 580000000 cycles: 1933578801 heartbeat IPC: 0.263119 cumulative IPC: 0.267178 (Simulation time: 1 hr 4 min 13 sec) 
Heartbeat CPU 0 instructions: 590000000 cycles: 1964772247 heartbeat IPC: 0.32058 cumulative IPC: 0.270395 (Simulation time: 1 hr 5 min 14 sec) 
Heartbeat CPU 0 instructions: 600000000 cycles: 1995491131 heartbeat IPC: 0.325533 cumulative IPC: 0.273483 (Simulation time: 1 hr 6 min 14 sec) 
Heartbeat CPU 0 instructions: 610000001 cycles: 2025962011 heartbeat IPC: 0.328182 cumulative IPC: 0.276362 (Simulation time: 1 hr 7 min 13 sec) 
Heartbeat CPU 0 instructions: 620000002 cycles: 2056219490 heartbeat IPC: 0.330497 cumulative IPC: 0.279051 (Simulation time: 1 hr 8 min 14 sec) 
Heartbeat CPU 0 instructions: 630000002 cycles: 2086844127 heartbeat IPC: 0.326534 cumulative IPC: 0.281323 (Simulation time: 1 hr 9 min 15 sec) 
Heartbeat CPU 0 instructions: 640000003 cycles: 2116879874 heartbeat IPC: 0.332937 cumulative IPC: 0.283638 (Simulation time: 1 hr 10 min 15 sec) 
Heartbeat CPU 0 instructions: 650000000 cycles: 2146755224 heartbeat IPC: 0.334724 cumulative IPC: 0.285819 (Simulation time: 1 hr 11 min 15 sec) 
Heartbeat CPU 0 instructions: 660000000 cycles: 2176889711 heartbeat IPC: 0.331846 cumulative IPC: 0.287719 (Simulation time: 1 hr 12 min 15 sec) 
Heartbeat CPU 0 instructions: 670000001 cycles: 2207264653 heartbeat IPC: 0.329219 cumulative IPC: 0.289377 (Simulation time: 1 hr 13 min 16 sec) 
Heartbeat CPU 0 instructions: 680000000 cycles: 2237723524 heartbeat IPC: 0.328312 cumulative IPC: 0.290877 (Simulation time: 1 hr 14 min 17 sec) 
Heartbeat CPU 0 instructions: 690000001 cycles: 2268350093 heartbeat IPC: 0.326514 cumulative IPC: 0.292206 (Simulation time: 1 hr 15 min 18 sec) 
Heartbeat CPU 0 instructions: 700000000 cycles: 2297613318 heartbeat IPC: 0.341726 cumulative IPC: 0.293909 (Simulation time: 1 hr 16 min 17 sec) 
Heartbeat CPU 0 instructions: 710000001 cycles: 2324574367 heartbeat IPC: 0.370905 cumulative IPC: 0.296275 (Simulation time: 1 hr 17 min 13 sec) 
Heartbeat CPU 0 instructions: 720000001 cycles: 2352045444 heartbeat IPC: 0.364019 cumulative IPC: 0.298331 (Simulation time: 1 hr 18 min 8 sec) 
Heartbeat CPU 0 instructions: 730000000 cycles: 2378832844 heartbeat IPC: 0.37331 cumulative IPC: 0.300487 (Simulation time: 1 hr 19 min 3 sec) 
Heartbeat CPU 0 instructions: 740000002 cycles: 2405653223 heartbeat IPC: 0.372851 cumulative IPC: 0.302511 (Simulation time: 1 hr 19 min 58 sec) 
Heartbeat CPU 0 instructions: 750000002 cycles: 2432967425 heartbeat IPC: 0.36611 cumulative IPC: 0.304273 (Simulation time: 1 hr 20 min 53 sec) 
Heartbeat CPU 0 instructions: 760000001 cycles: 2462539299 heartbeat IPC: 0.338159 cumulative IPC: 0.30526 (Simulation time: 1 hr 21 min 52 sec) 
Heartbeat CPU 0 instructions: 770000000 cycles: 2493651849 heartbeat IPC: 0.321414 cumulative IPC: 0.30574 (Simulation time: 1 hr 22 min 56 sec) 
Heartbeat CPU 0 instructions: 780000003 cycles: 2525201190 heartbeat IPC: 0.316964 cumulative IPC: 0.306068 (Simulation time: 1 hr 24 min 0 sec) 
Heartbeat CPU 0 instructions: 790000000 cycles: 2558613336 heartbeat IPC: 0.299292 cumulative IPC: 0.305865 (Simulation time: 1 hr 25 min 8 sec) 
Heartbeat CPU 0 instructions: 800000003 cycles: 2592082928 heartbeat IPC: 0.298779 cumulative IPC: 0.305658 (Simulation time: 1 hr 26 min 16 sec) 
Heartbeat CPU 0 instructions: 810000003 cycles: 2626004920 heartbeat IPC: 0.294794 cumulative IPC: 0.305345 (Simulation time: 1 hr 27 min 23 sec) 
Heartbeat CPU 0 instructions: 820000003 cycles: 2659121278 heartbeat IPC: 0.301966 cumulative IPC: 0.305253 (Simulation time: 1 hr 28 min 27 sec) 
Heartbeat CPU 0 instructions: 830000000 cycles: 2691692323 heartbeat IPC: 0.307021 cumulative IPC: 0.305299 (Simulation time: 1 hr 29 min 31 sec) 
Heartbeat CPU 0 instructions: 840000001 cycles: 2724449982 heartbeat IPC: 0.305272 cumulative IPC: 0.305298 (Simulation time: 1 hr 30 min 36 sec) 
Heartbeat CPU 0 instructions: 850000001 cycles: 2757468793 heartbeat IPC: 0.302858 cumulative IPC: 0.305237 (Simulation time: 1 hr 31 min 42 sec) 
Heartbeat CPU 0 instructions: 860000000 cycles: 2790575997 heartbeat IPC: 0.302049 cumulative IPC: 0.305158 (Simulation time: 1 hr 32 min 47 sec) 
Heartbeat CPU 0 instructions: 870000003 cycles: 2823220837 heartbeat IPC: 0.306327 cumulative IPC: 0.305186 (Simulation time: 1 hr 33 min 52 sec) 
Heartbeat CPU 0 instructions: 880000000 cycles: 2856525493 heartbeat IPC: 0.300258 cumulative IPC: 0.30507 (Simulation time: 1 hr 34 min 57 sec) 
Heartbeat CPU 0 instructions: 890000000 cycles: 2889847555 heartbeat IPC: 0.300101 cumulative IPC: 0.304955 (Simulation time: 1 hr 36 min 5 sec) 
Heartbeat CPU 0 instructions: 900000000 cycles: 2922223736 heartbeat IPC: 0.308869 cumulative IPC: 0.305041 (Simulation time: 1 hr 37 min 10 sec) 
Heartbeat CPU 0 instructions: 910000001 cycles: 2955189563 heartbeat IPC: 0.303344 cumulative IPC: 0.305004 (Simulation time: 1 hr 38 min 17 sec) 
Heartbeat CPU 0 instructions: 920000000 cycles: 2987708896 heartbeat IPC: 0.307509 cumulative IPC: 0.305057 (Simulation time: 1 hr 39 min 23 sec) 
Heartbeat CPU 0 instructions: 930000000 cycles: 3020793908 heartbeat IPC: 0.302252 cumulative IPC: 0.304998 (Simulation time: 1 hr 40 min 29 sec) 
Heartbeat CPU 0 instructions: 940000000 cycles: 3054358320 heartbeat IPC: 0.297935 cumulative IPC: 0.30485 (Simulation time: 1 hr 41 min 13 sec) 
Heartbeat CPU 0 instructions: 950000000 cycles: 3088641602 heartbeat IPC: 0.291687 cumulative IPC: 0.304575 (Simulation time: 1 hr 41 min 44 sec) 
Finished CPU 0 instructions: 500000000 cycles: 1641630488 cumulative IPC: 0.304575 (Simulation time: 1 hr 41 min 44 sec) 

ChampSim completed all CPUs

Region of Interest Statistics

CPU 0 cumulative IPC: 0.304575 instructions: 500000000 cycles: 1641630488
L1D TOTAL     ACCESS:  164215734  HIT:  131649655  MISS:   32566079
L1D LOAD      ACCESS:  121482105  HIT:   90492830  MISS:   30989275
L1D RFO       ACCESS:   42733629  HIT:   41156825  MISS:    1576804
L1D PREFETCH  ACCESS:          0  HIT:          0  MISS:          0
L1D WRITEBACK ACCESS:          0  HIT:          0  MISS:          0
L1D PREFETCH  REQUESTED:          0  ISSUED:          0  USEFUL:          0  USELESS:          0
L1D AVERAGE MISS LATENCY: 91.7475 cycles
L1I TOTAL     ACCESS:   90212352  HIT:   90212352  MISS:          0
L1I LOAD      ACCESS:   90212352  HIT:   90212352  MISS:          0
L1I RFO       ACCESS:          0  HIT:          0  MISS:          0
L1I PREFETCH  ACCESS:          0  HIT:          0  MISS:          0
L1I WRITEBACK ACCESS:          0  HIT:          0  MISS:          0
L1I PREFETCH  REQUESTED:          0  ISSUED:          0  USEFUL:          0  USELESS:          0
L1I AVERAGE MISS LATENCY: -nan cycles
L2C TOTAL     ACCESS:   34973922  HIT:    8761905  MISS:   26212017
L2C LOAD      ACCESS:   30989129  HIT:    5547001  MISS:   25442128
L2C RFO       ACCESS:    1576796  HIT:     810200  MISS:     766596
L2C PREFETCH  ACCESS:          0  HIT:          0  MISS:          0
L2C WRITEBACK ACCESS:    2407997  HIT:    2404704  MISS:       3293
L2C PREFETCH  REQUESTED:          0  ISSUED:          0  USEFUL:          0  USELESS:          0
L2C AVERAGE MISS LATENCY: 94.8902 cycles
LLC TOTAL     ACCESS:   30191985  HIT:   15751729  MISS:   14440256
LLC LOAD      ACCESS:   25442118  HIT:   12610288  MISS:   12831830
LLC RFO       ACCESS:     766594  HIT:     747933  MISS:      18661
LLC PREFETCH  ACCESS:    2439250  HIT:     881918  MISS:    1557332
LLC WRITEBACK ACCESS:    1544023  HIT:    1511590  MISS:      32433
LLC PREFETCH  REQUESTED:    2713782  ISSUED:    2713782  USEFUL:      29326  USELESS:    1528006
LLC AVERAGE MISS LATENCY: 147.484 cycles
Major fault: 0 Minor fault: 303883
CPU 0 LLC from file prefetcher final stats

DRAM Statistics
 CHANNEL 0
 RQ ROW_BUFFER_HIT:    6686103  ROW_BUFFER_MISS:    7721573
 DBUS_CONGESTED:    6191296
 WQ ROW_BUFFER_HIT:      64445  ROW_BUFFER_MISS:      95049  FULL:          0

 AVG_CONGESTED_CYCLE: 5

CPU 0 Branch Prediction Accuracy: 94.4017% MPKI: 14.3155 Average ROB Occupancy at Mispredict: 32.8768

Branch types
NOT_BRANCH: 372143845 74.4288%
BRANCH_DIRECT_JUMP: 14238481 2.8477%
BRANCH_INDIRECT: 0 0%
BRANCH_CONDITIONAL: 93325958 18.6652%
BRANCH_DIRECT_CALL: 9505113 1.90102%
BRANCH_INDIRECT_CALL: 640558 0.128112%
BRANCH_RETURN: 10145672 2.02913%
BRANCH_OTHER: 0 0%

